<?xml version="1.0" encoding="UTF-8"?>

<!-- generated on Sun Dec  6 13:12:16 2020 by Eclipse SUMO duarouter Version 1.8.0
<configuration xmlns:xsi="http://www.w3.org/2001/XMLSchema-instance" xsi:noNamespaceSchemaLocation="http://sumo.dlr.de/xsd/duarouterConfiguration.xsd">

    <input>
        <net-file value="nets/3x3/3x3.net.xml"/>
        <route-files value="trips.trips.xml"/>
    </input>

    <output>
        <output-file value="nets/3x3/routes/3x3_9.rou.xml"/>
        <alternatives-output value="nets/3x3/routes/3x3_9.rou.alt.xml"/>
    </output>

    <time>
        <begin value="0"/>
        <end value="900"/>
    </time>

    <report>
        <no-warnings value="true"/>
        <ignore-errors value="true"/>
        <no-step-log value="true"/>
    </report>

</configuration>
-->

<routes xmlns:xsi="http://www.w3.org/2001/XMLSchema-instance" xsi:noNamespaceSchemaLocation="http://sumo.dlr.de/xsd/routes_file.xsd">
    <vehicle id="0" depart="0.00">
        <route edges="-gneE9 gneE5 gneE7 gneE8"/>
    </vehicle>
    <vehicle id="1" depart="2.00">
        <route edges="-gneE8 -gneE7 gneE6"/>
    </vehicle>
    <vehicle id="2" depart="2.00">
        <route edges="-gneE26 -gneE17 -gneE10 -gneE1"/>
    </vehicle>
    <vehicle id="3" depart="6.00">
        <route edges="-gneE9 gneE5 gneE7 gneE15"/>
    </vehicle>
    <vehicle id="4" depart="6.00">
        <route edges="-gneE8 -gneE14 -gneE21 gneE28"/>
    </vehicle>
    <vehicle id="5" depart="7.00">
        <route edges="-gneE22 gneE14 -gneE7 -gneE5 gneE9"/>
    </vehicle>
    <vehicle id="6" depart="8.00">
        <route edges="gneE25 gneE18 gneE27"/>
    </vehicle>
    <vehicle id="7" depart="9.00">
        <route edges="-gneE26 -gneE17 gneE24"/>
    </vehicle>
    <vehicle id="8" depart="10.00">
        <route edges="-gneE8 -gneE14 -gneE13 gneE12 gneE7 gneE8"/>
    </vehicle>
    <vehicle id="9" depart="11.00">
        <route edges="-gneE26 gneE18 gneE20 gneE21 gneE14 gneE8"/>
    </vehicle>
    <vehicle id="10" depart="14.00">
        <route edges="gneE25 -gneE17 -gneE10 -gneE1"/>
    </vehicle>
    <vehicle id="11" depart="15.00">
        <route edges="-gneE28 gneE21 gneE14 gneE15"/>
    </vehicle>
    <vehicle id="12" depart="16.00">
        <route edges="-gneE28 -gneE20 gneE19 gneE13 -gneE21 gneE28"/>
    </vehicle>
    <vehicle id="13" depart="20.00">
        <route edges="-gneE9 gneE5 -gneE12 -gneE11 -gneE10 gneE9"/>
    </vehicle>
    <vehicle id="14" depart="22.00">
        <route edges="-gneE28 -gneE20 -gneE18 gneE26"/>
    </vehicle>
    <vehicle id="15" depart="24.00">
        <route edges="gneE1 gneE10 gneE17 -gneE25"/>
    </vehicle>
    <vehicle id="16" depart="24.00">
        <route edges="-gneE9 gneE5 gneE7 gneE15"/>
    </vehicle>
    <vehicle id="17" depart="26.00">
        <route edges="gneE1 gneE5 gneE7 -gneE14 -gneE21 gneE28"/>
    </vehicle>
    <vehicle id="18" depart="27.00">
        <route edges="-gneE26 -gneE25"/>
    </vehicle>
    <vehicle id="19" depart="27.00">
        <route edges="-gneE8 -gneE14 -gneE21 -gneE20 -gneE18 -gneE25"/>
    </vehicle>
    <vehicle id="20" depart="32.00">
        <route edges="-gneE22 gneE14 gneE15"/>
    </vehicle>
    <vehicle id="21" depart="43.00">
        <route edges="-gneE28 gneE21 gneE14 -gneE7 -gneE5 gneE9"/>
    </vehicle>
    <vehicle id="22" depart="43.00">
        <route edges="-gneE28 -gneE20 -gneE18 -gneE25"/>
    </vehicle>
    <vehicle id="23" depart="44.00">
        <route edges="-gneE6 gneE7 -gneE14 -gneE13 gneE12 gneE6"/>
    </vehicle>
    <vehicle id="24" depart="46.00">
        <route edges="-gneE15 -gneE14 -gneE13 gneE12 gneE7 gneE15"/>
    </vehicle>
    <vehicle id="25" depart="48.00">
        <route edges="gneE25 -gneE17 -gneE10 gneE9"/>
    </vehicle>
    <vehicle id="26" depart="50.00">
        <route edges="-gneE28 gneE21 -gneE13 -gneE11 gneE24"/>
    </vehicle>
    <vehicle id="27" depart="50.00">
        <route edges="-gneE28 -gneE20 -gneE18 -gneE17 -gneE10 -gneE1"/>
    </vehicle>
    <vehicle id="28" depart="51.00">
        <route edges="-gneE22 -gneE13 -gneE19 gneE27"/>
    </vehicle>
    <vehicle id="29" depart="52.00">
        <route edges="-gneE26 -gneE17 gneE24"/>
    </vehicle>
    <vehicle id="30" depart="55.00">
        <route edges="-gneE23 -gneE20 gneE27"/>
    </vehicle>
    <vehicle id="31" depart="57.00">
        <route edges="-gneE22 gneE14 gneE8"/>
    </vehicle>
    <vehicle id="32" depart="59.00">
        <route edges="-gneE9 gneE5 gneE7 gneE8"/>
    </vehicle>
    <vehicle id="33" depart="60.00">
        <route edges="gneE25 -gneE17 gneE11 -gneE19 -gneE18 -gneE25"/>
    </vehicle>
    <vehicle id="34" depart="60.00">
        <route edges="-gneE28 -gneE20 -gneE18 -gneE25"/>
    </vehicle>
    <vehicle id="35" depart="60.00">
        <route edges="-gneE8 -gneE14 -gneE13 gneE12 gneE7 gneE8"/>
    </vehicle>
    <vehicle id="36" depart="61.00">
        <route edges="-gneE6 -gneE12 -gneE11 gneE24"/>
    </vehicle>
    <vehicle id="37" depart="64.00">
        <route edges="-gneE23 gneE28"/>
    </vehicle>
    <vehicle id="38" depart="65.00">
        <route edges="-gneE26 -gneE17 -gneE10 gneE5 gneE7 gneE15"/>
    </vehicle>
    <vehicle id="39" depart="65.00">
        <route edges="-gneE6 gneE7 gneE8"/>
    </vehicle>
    <vehicle id="40" depart="66.00">
        <route edges="-gneE9 gneE5 -gneE12 -gneE11 -gneE10 gneE9"/>
    </vehicle>
    <vehicle id="41" depart="69.00">
        <route edges="gneE1 gneE10 gneE17 -gneE25"/>
    </vehicle>
    <vehicle id="42" depart="70.00">
        <route edges="-gneE26 gneE18 gneE20 gneE21 gneE14 gneE8"/>
    </vehicle>
    <vehicle id="43" depart="76.00">
        <route edges="gneE1 gneE5 gneE7 -gneE14 -gneE21 gneE28"/>
    </vehicle>
    <vehicle id="44" depart="76.00">
        <route edges="-gneE23 gneE21 gneE14 gneE8"/>
    </vehicle>
    <vehicle id="45" depart="78.00">
        <route edges="-gneE23 gneE21 gneE14 gneE8"/>
    </vehicle>
    <vehicle id="46" depart="78.00">
        <route edges="-gneE26 gneE18 gneE20 gneE21 gneE14 gneE8"/>
    </vehicle>
    <vehicle id="47" depart="80.00">
        <route edges="-gneE6 -gneE5 gneE9"/>
    </vehicle>
    <vehicle id="48" depart="83.00">
        <route edges="-gneE22 -gneE21 gneE28"/>
    </vehicle>
    <vehicle id="49" depart="86.00">
        <route edges="-gneE23 gneE28"/>
    </vehicle>
    <vehicle id="50" depart="88.00">
        <route edges="-gneE6 -gneE12 -gneE11 gneE24"/>
    </vehicle>
    <vehicle id="51" depart="88.00">
        <route edges="-gneE15 -gneE7 gneE6"/>
    </vehicle>
    <vehicle id="52" depart="90.00">
        <route edges="-gneE6 -gneE12 -gneE19 gneE27"/>
    </vehicle>
    <vehicle id="53" depart="91.00">
        <route edges="-gneE23 gneE21 gneE14 gneE15"/>
    </vehicle>
    <vehicle id="54" depart="95.00">
        <route edges="-gneE6 gneE7 -gneE14 -gneE13 gneE12 gneE6"/>
    </vehicle>
    <vehicle id="55" depart="96.00">
        <route edges="-gneE22 -gneE21 -gneE20 -gneE18 -gneE25"/>
    </vehicle>
    <vehicle id="56" depart="97.00">
        <route edges="-gneE22 gneE14 -gneE7 -gneE5 gneE9"/>
    </vehicle>
    <vehicle id="57" depart="98.00">
        <route edges="-gneE9 gneE5 gneE7 gneE15"/>
    </vehicle>
    <vehicle id="58" depart="99.00">
        <route edges="-gneE23 gneE28"/>
    </vehicle>
    <vehicle id="59" depart="103.00">
        <route edges="-gneE9 gneE5 gneE7 gneE8"/>
    </vehicle>
    <vehicle id="60" depart="103.00">
        <route edges="gneE1 gneE9"/>
    </vehicle>
    <vehicle id="61" depart="103.00">
        <route edges="-gneE27 gneE19 gneE12 gneE7 gneE15"/>
    </vehicle>
    <vehicle id="62" depart="103.00">
        <route edges="-gneE26 -gneE17 gneE24"/>
    </vehicle>
    <vehicle id="63" depart="105.00">
        <route edges="-gneE15 gneE8"/>
    </vehicle>
    <vehicle id="64" depart="106.00">
        <route edges="-gneE6 -gneE12 -gneE11 gneE24"/>
    </vehicle>
    <vehicle id="65" depart="110.00">
        <route edges="-gneE9 gneE10 gneE24"/>
    </vehicle>
    <vehicle id="66" depart="111.00">
        <route edges="-gneE8 -gneE14 -gneE21 -gneE20 -gneE18 -gneE25"/>
    </vehicle>
    <vehicle id="67" depart="112.00">
        <route edges="-gneE26 -gneE17 -gneE10 gneE5 gneE7 gneE15"/>
    </vehicle>
    <vehicle id="68" depart="114.00">
        <route edges="-gneE23 gneE21 -gneE13 -gneE11 gneE24"/>
    </vehicle>
    <vehicle id="69" depart="117.00">
        <route edges="gneE1 gneE5 gneE7 gneE15"/>
    </vehicle>
    <vehicle id="70" depart="118.00">
        <route edges="-gneE15 -gneE14 -gneE21 gneE28"/>
    </vehicle>
    <vehicle id="71" depart="118.00">
        <route edges="-gneE23 gneE21 gneE14 gneE15"/>
    </vehicle>
    <vehicle id="72" depart="119.00">
        <route edges="-gneE8 -gneE14 gneE22"/>
    </vehicle>
    <vehicle id="73" depart="120.00">
        <route edges="gneE25 gneE18 gneE19 gneE12 gneE6"/>
    </vehicle>
    <vehicle id="74" depart="121.00">
        <route edges="-gneE6 -gneE12 -gneE19 gneE27"/>
    </vehicle>
    <vehicle id="75" depart="123.00">
        <route edges="-gneE22 -gneE21 -gneE20 -gneE18 -gneE25"/>
    </vehicle>
    <vehicle id="76" depart="124.00">
        <route edges="gneE25 -gneE17 gneE24"/>
    </vehicle>
    <vehicle id="77" depart="126.00">
        <route edges="-gneE22 -gneE21 -gneE20 -gneE18 -gneE25"/>
    </vehicle>
    <vehicle id="78" depart="127.00">
        <route edges="gneE25 gneE26"/>
    </vehicle>
    <vehicle id="79" depart="128.00">
        <route edges="-gneE22 -gneE21 -gneE20 -gneE18 -gneE25"/>
    </vehicle>
    <vehicle id="80" depart="130.00">
        <route edges="gneE25 gneE18 gneE20 gneE21 gneE14 gneE8"/>
    </vehicle>
    <vehicle id="81" depart="132.00">
        <route edges="-gneE23 -gneE20 -gneE18 -gneE17 -gneE10 -gneE1"/>
    </vehicle>
    <vehicle id="82" depart="133.00">
        <route edges="-gneE23 -gneE20 -gneE18 -gneE25"/>
    </vehicle>
    <vehicle id="83" depart="135.00">
        <route edges="gneE25 -gneE17 -gneE10 -gneE1"/>
    </vehicle>
    <vehicle id="84" depart="135.00">
        <route edges="-gneE8 -gneE7 -gneE5 gneE9"/>
    </vehicle>
    <vehicle id="85" depart="139.00">
        <route edges="-gneE8 -gneE7 -gneE5 gneE9"/>
    </vehicle>
    <vehicle id="86" depart="141.00">
        <route edges="-gneE23 gneE21 gneE14 -gneE7 -gneE5 gneE9"/>
    </vehicle>
    <vehicle id="87" depart="142.00">
        <route edges="-gneE28 gneE21 -gneE13 -gneE11 gneE24"/>
    </vehicle>
    <vehicle id="88" depart="144.00">
        <route edges="-gneE23 -gneE20 -gneE18 -gneE25"/>
    </vehicle>
    <vehicle id="89" depart="154.00">
        <route edges="-gneE22 -gneE21 -gneE20 gneE19 gneE13 gneE22"/>
    </vehicle>
    <vehicle id="90" depart="157.00">
        <route edges="gneE25 gneE18 gneE19 gneE12 gneE6"/>
    </vehicle>
    <vehicle id="91" depart="159.00">
        <route edges="-gneE22 -gneE21 -gneE20 -gneE18 -gneE25"/>
    </vehicle>
    <vehicle id="92" depart="160.00">
        <route edges="-gneE22 -gneE13 -gneE11 -gneE10 -gneE1"/>
    </vehicle>
    <vehicle id="93" depart="160.00">
        <route edges="-gneE6 gneE7 gneE8"/>
    </vehicle>
    <vehicle id="94" depart="164.00">
        <route edges="-gneE9 gneE5 -gneE12 -gneE11 -gneE10 gneE9"/>
    </vehicle>
    <vehicle id="95" depart="164.00">
        <route edges="-gneE24 gneE11 -gneE19 gneE27"/>
    </vehicle>
    <vehicle id="96" depart="170.00">
        <route edges="-gneE28 gneE21 gneE14 gneE8"/>
    </vehicle>
    <vehicle id="97" depart="170.00">
        <route edges="gneE25 gneE18 gneE27"/>
    </vehicle>
    <vehicle id="98" depart="171.00">
        <route edges="-gneE28 gneE21 gneE14 -gneE7 -gneE5 gneE9"/>
    </vehicle>
    <vehicle id="99" depart="171.00">
        <route edges="-gneE28 gneE21 gneE14 -gneE7 -gneE5 gneE9"/>
    </vehicle>
    <vehicle id="100" depart="173.00">
        <route edges="-gneE23 -gneE20 -gneE18 -gneE17 -gneE10 -gneE1"/>
    </vehicle>
    <vehicle id="101" depart="174.00">
        <route edges="-gneE26 gneE18 gneE20 gneE21 gneE14 gneE8"/>
    </vehicle>
    <vehicle id="102" depart="175.00">
        <route edges="-gneE28 -gneE20 gneE19 gneE12 gneE6"/>
    </vehicle>
    <vehicle id="103" depart="175.00">
        <route edges="-gneE23 gneE21 gneE14 gneE15"/>
    </vehicle>
    <vehicle id="104" depart="179.00">
        <route edges="-gneE26 gneE18 gneE20 gneE21 gneE14 gneE8"/>
    </vehicle>
    <vehicle id="105" depart="180.00">
        <route edges="-gneE9 gneE5 gneE7 gneE8"/>
    </vehicle>
    <vehicle id="106" depart="181.00">
        <route edges="-gneE22 -gneE13 -gneE11 -gneE10 -gneE1"/>
    </vehicle>
    <vehicle id="107" depart="182.00">
        <route edges="-gneE22 gneE14 -gneE7 -gneE5 gneE9"/>
    </vehicle>
    <vehicle id="108" depart="183.00">
        <route edges="-gneE8 -gneE14 -gneE13 gneE12 gneE7 gneE8"/>
    </vehicle>
    <vehicle id="109" depart="186.00">
        <route edges="gneE1 gneE5 -gneE12 -gneE11 -gneE10 -gneE1"/>
    </vehicle>
    <vehicle id="110" depart="187.00">
        <route edges="-gneE28 gneE21 gneE14 gneE8"/>
    </vehicle>
    <vehicle id="111" depart="188.00">
        <route edges="-gneE8 -gneE14 -gneE21 gneE28"/>
    </vehicle>
    <vehicle id="112" depart="189.00">
        <route edges="-gneE15 gneE8"/>
    </vehicle>
    <vehicle id="113" depart="190.00">
        <route edges="-gneE28 gneE21 gneE14 -gneE7 -gneE5 gneE9"/>
    </vehicle>
    <vehicle id="114" depart="190.00">
        <route edges="-gneE6 -gneE5 gneE9"/>
    </vehicle>
    <vehicle id="115" depart="192.00">
        <route edges="-gneE15 -gneE7 -gneE12 -gneE19 gneE27"/>
    </vehicle>
    <vehicle id="116" depart="194.00">
        <route edges="-gneE8 -gneE14 -gneE21 gneE28"/>
    </vehicle>
    <vehicle id="117" depart="196.00">
        <route edges="-gneE26 -gneE17 -gneE10 gneE9"/>
    </vehicle>
    <vehicle id="118" depart="198.00">
        <route edges="-gneE26 -gneE17 -gneE10 gneE9"/>
    </vehicle>
    <vehicle id="119" depart="199.00">
        <route edges="-gneE28 -gneE20 -gneE18 -gneE25"/>
    </vehicle>
    <vehicle id="120" depart="201.00">
        <route edges="gneE1 gneE10 gneE17 -gneE25"/>
    </vehicle>
    <vehicle id="121" depart="204.00">
        <route edges="-gneE28 gneE21 gneE14 gneE8"/>
    </vehicle>
    <vehicle id="122" depart="206.00">
        <route edges="-gneE26 gneE18 gneE20 gneE28"/>
    </vehicle>
    <vehicle id="123" depart="208.00">
        <route edges="gneE25 -gneE17 -gneE10 gneE9"/>
    </vehicle>
    <vehicle id="124" depart="209.00">
        <route edges="gneE25 -gneE17 gneE11 -gneE19 -gneE18 -gneE25"/>
    </vehicle>
    <vehicle id="125" depart="210.00">
        <route edges="gneE25 -gneE17 -gneE10 -gneE1"/>
    </vehicle>
    <vehicle id="126" depart="211.00">
        <route edges="-gneE9 gneE5 gneE6"/>
    </vehicle>
    <vehicle id="127" depart="212.00">
        <route edges="-gneE26 -gneE17 -gneE10 gneE5 gneE7 gneE15"/>
    </vehicle>
    <vehicle id="128" depart="215.00">
        <route edges="gneE1 gneE5 gneE7 gneE15"/>
    </vehicle>
    <vehicle id="129" depart="216.00">
        <route edges="-gneE9 gneE5 gneE7 -gneE14 -gneE21 gneE28"/>
    </vehicle>
    <vehicle id="130" depart="217.00">
        <route edges="-gneE28 gneE21 gneE14 gneE8"/>
    </vehicle>
    <vehicle id="131" depart="217.00">
        <route edges="-gneE9 -gneE1"/>
    </vehicle>
    <vehicle id="132" depart="218.00">
        <route edges="-gneE26 -gneE17 -gneE10 gneE5 gneE7 gneE15"/>
    </vehicle>
    <vehicle id="133" depart="221.00">
        <route edges="-gneE23 gneE28"/>
    </vehicle>
    <vehicle id="134" depart="223.00">
        <route edges="-gneE26 -gneE17 gneE11 -gneE19 -gneE18 gneE26"/>
    </vehicle>
    <vehicle id="135" depart="224.00">
        <route edges="-gneE22 -gneE21 -gneE20 gneE19 gneE13 gneE22"/>
    </vehicle>
    <vehicle id="136" depart="225.00">
        <route edges="-gneE23 gneE21 gneE14 gneE8"/>
    </vehicle>
    <vehicle id="137" depart="227.00">
        <route edges="-gneE28 gneE21 gneE22"/>
    </vehicle>
    <vehicle id="138" depart="228.00">
        <route edges="-gneE26 gneE18 gneE20 gneE21 gneE14 gneE8"/>
    </vehicle>
    <vehicle id="139" depart="230.00">
        <route edges="-gneE23 gneE21 gneE22"/>
    </vehicle>
    <vehicle id="140" depart="231.00">
        <route edges="-gneE9 gneE5 -gneE12 -gneE11 -gneE10 gneE9"/>
    </vehicle>
    <vehicle id="141" depart="232.00">
        <route edges="-gneE28 -gneE20 gneE19 gneE12 gneE6"/>
    </vehicle>
    <vehicle id="142" depart="232.00">
        <route edges="-gneE6 -gneE12 -gneE19 -gneE18 -gneE25"/>
    </vehicle>
    <vehicle id="143" depart="233.00">
        <route edges="-gneE26 gneE18 gneE20 gneE28"/>
    </vehicle>
    <vehicle id="144" depart="238.00">
        <route edges="-gneE8 -gneE14 -gneE13 gneE12 gneE7 gneE8"/>
    </vehicle>
    <vehicle id="145" depart="240.00">
        <route edges="-gneE9 gneE5 -gneE12 -gneE11 -gneE10 gneE9"/>
    </vehicle>
    <vehicle id="146" depart="246.00">
        <route edges="-gneE9 -gneE1"/>
    </vehicle>
    <vehicle id="147" depart="247.00">
        <route edges="-gneE22 -gneE13 -gneE11 gneE24"/>
    </vehicle>
    <vehicle id="148" depart="247.00">
        <route edges="-gneE15 -gneE14 -gneE21 gneE28"/>
    </vehicle>
    <vehicle id="149" depart="250.00">
        <route edges="-gneE9 gneE5 gneE7 -gneE14 -gneE21 gneE28"/>
    </vehicle>
    <vehicle id="150" depart="251.00">
        <route edges="-gneE8 -gneE14 -gneE13 gneE12 gneE7 gneE8"/>
    </vehicle>
    <vehicle id="151" depart="252.00">
        <route edges="-gneE26 -gneE25"/>
    </vehicle>
    <vehicle id="152" depart="255.00">
        <route edges="-gneE28 -gneE20 gneE27"/>
    </vehicle>
    <vehicle id="153" depart="255.00">
        <route edges="-gneE26 -gneE25"/>
    </vehicle>
    <vehicle id="154" depart="256.00">
        <route edges="-gneE24 gneE11 gneE13 gneE22"/>
    </vehicle>
    <vehicle id="155" depart="258.00">
        <route edges="-gneE26 -gneE17 gneE11 gneE13 gneE22"/>
    </vehicle>
    <vehicle id="156" depart="259.00">
        <route edges="-gneE22 gneE14 -gneE7 -gneE5 gneE9"/>
    </vehicle>
    <vehicle id="157" depart="261.00">
        <route edges="-gneE26 gneE18 gneE20 gneE28"/>
    </vehicle>
    <vehicle id="158" depart="264.00">
        <route edges="-gneE26 -gneE17 gneE11 gneE13 gneE22"/>
    </vehicle>
    <vehicle id="159" depart="267.00">
        <route edges="-gneE15 -gneE7 gneE6"/>
    </vehicle>
    <vehicle id="160" depart="269.00">
        <route edges="gneE25 -gneE17 gneE11 gneE13 gneE22"/>
    </vehicle>
    <vehicle id="161" depart="271.00">
        <route edges="-gneE8 -gneE14 -gneE21 gneE28"/>
    </vehicle>
    <vehicle id="162" depart="275.00">
        <route edges="-gneE9 -gneE1"/>
    </vehicle>
    <vehicle id="163" depart="277.00">
        <route edges="-gneE9 gneE10 gneE24"/>
    </vehicle>
    <vehicle id="164" depart="278.00">
        <route edges="gneE1 gneE5 -gneE12 -gneE11 -gneE10 -gneE1"/>
    </vehicle>
    <vehicle id="165" depart="282.00">
        <route edges="-gneE23 gneE28"/>
    </vehicle>
    <vehicle id="166" depart="282.00">
        <route edges="-gneE22 gneE14 gneE15"/>
    </vehicle>
    <vehicle id="167" depart="287.00">
        <route edges="-gneE23 -gneE20 -gneE18 -gneE17 -gneE10 -gneE1"/>
    </vehicle>
    <vehicle id="168" depart="288.00">
        <route edges="-gneE6 gneE7 gneE8"/>
    </vehicle>
    <vehicle id="169" depart="290.00">
        <route edges="-gneE26 -gneE17 -gneE10 -gneE1"/>
    </vehicle>
    <vehicle id="170" depart="292.00">
        <route edges="-gneE23 gneE21 gneE14 gneE8"/>
    </vehicle>
    <vehicle id="171" depart="298.00">
        <route edges="gneE1 gneE5 -gneE12 -gneE11 -gneE10 -gneE1"/>
    </vehicle>
    <vehicle id="172" depart="301.00">
        <route edges="-gneE15 gneE8"/>
    </vehicle>
    <vehicle id="173" depart="301.00">
        <route edges="-gneE9 gneE5 gneE7 gneE15"/>
    </vehicle>
    <vehicle id="174" depart="301.00">
        <route edges="-gneE23 -gneE20 -gneE18 -gneE25"/>
    </vehicle>
    <vehicle id="175" depart="302.00">
        <route edges="-gneE8 -gneE7 -gneE5 -gneE1"/>
    </vehicle>
    <vehicle id="176" depart="303.00">
        <route edges="-gneE9 gneE5 gneE6"/>
    </vehicle>
    <vehicle id="177" depart="304.00">
        <route edges="-gneE26 -gneE25"/>
    </vehicle>
    <vehicle id="178" depart="306.00">
        <route edges="-gneE23 -gneE20 -gneE18 -gneE25"/>
    </vehicle>
    <vehicle id="179" depart="308.00">
        <route edges="-gneE8 -gneE14 -gneE21 gneE28"/>
    </vehicle>
    <vehicle id="180" depart="309.00">
        <route edges="-gneE15 -gneE7 -gneE5 -gneE1"/>
    </vehicle>
    <vehicle id="181" depart="310.00">
        <route edges="-gneE24 -gneE10 -gneE1"/>
    </vehicle>
    <vehicle id="182" depart="311.00">
        <route edges="gneE1 gneE5 gneE6"/>
    </vehicle>
    <vehicle id="183" depart="313.00">
        <route edges="-gneE9 gneE5 -gneE12 -gneE19 gneE27"/>
    </vehicle>
    <vehicle id="184" depart="314.00">
        <route edges="-gneE22 gneE14 gneE8"/>
    </vehicle>
    <vehicle id="185" depart="315.00">
        <route edges="-gneE9 gneE5 gneE7 gneE8"/>
    </vehicle>
    <vehicle id="186" depart="316.00">
        <route edges="-gneE15 gneE8"/>
    </vehicle>
    <vehicle id="187" depart="316.00">
        <route edges="gneE1 gneE10 gneE17 -gneE25"/>
    </vehicle>
    <vehicle id="188" depart="320.00">
        <route edges="-gneE23 gneE21 gneE14 -gneE7 -gneE5 gneE9"/>
    </vehicle>
    <vehicle id="189" depart="320.00">
        <route edges="-gneE26 gneE18 gneE20 gneE28"/>
    </vehicle>
    <vehicle id="190" depart="324.00">
        <route edges="gneE1 gneE5 gneE7 gneE8"/>
    </vehicle>
    <vehicle id="191" depart="324.00">
        <route edges="-gneE28 gneE21 gneE14 gneE8"/>
    </vehicle>
    <vehicle id="192" depart="327.00">
        <route edges="-gneE15 gneE8"/>
    </vehicle>
    <vehicle id="193" depart="329.00">
        <route edges="-gneE28 -gneE20 gneE27"/>
    </vehicle>
    <vehicle id="194" depart="329.00">
        <route edges="-gneE23 -gneE20 -gneE18 -gneE25"/>
    </vehicle>
    <vehicle id="195" depart="331.00">
        <route edges="-gneE9 gneE5 -gneE12 -gneE11 -gneE10 gneE9"/>
    </vehicle>
    <vehicle id="196" depart="332.00">
        <route edges="-gneE28 gneE21 gneE14 gneE8"/>
    </vehicle>
    <vehicle id="197" depart="334.00">
        <route edges="-gneE23 gneE21 gneE14 gneE8"/>
    </vehicle>
    <vehicle id="198" depart="335.00">
        <route edges="-gneE26 -gneE17 -gneE10 gneE9"/>
    </vehicle>
    <vehicle id="199" depart="338.00">
        <route edges="-gneE28 gneE21 gneE14 gneE15"/>
    </vehicle>
    <vehicle id="200" depart="339.00">
        <route edges="-gneE22 -gneE21 -gneE20 -gneE18 -gneE25"/>
    </vehicle>
    <vehicle id="201" depart="341.00">
        <route edges="gneE25 -gneE17 gneE11 gneE13 gneE22"/>
    </vehicle>
    <vehicle id="202" depart="341.00">
        <route edges="-gneE23 -gneE20 -gneE18 -gneE25"/>
    </vehicle>
    <vehicle id="203" depart="343.00">
        <route edges="-gneE8 -gneE7 -gneE5 gneE9"/>
    </vehicle>
    <vehicle id="204" depart="345.00">
        <route edges="-gneE15 -gneE7 gneE6"/>
    </vehicle>
    <vehicle id="205" depart="347.00">
        <route edges="-gneE23 gneE21 gneE14 gneE15"/>
    </vehicle>
    <vehicle id="206" depart="348.00">
        <route edges="-gneE6 gneE7 gneE15"/>
    </vehicle>
    <vehicle id="207" depart="351.00">
        <route edges="-gneE23 gneE21 gneE14 gneE8"/>
    </vehicle>
    <vehicle id="208" depart="351.00">
        <route edges="-gneE6 -gneE12 -gneE19 -gneE18 -gneE25"/>
    </vehicle>
    <vehicle id="209" depart="356.00">
        <route edges="-gneE26 -gneE17 gneE24"/>
    </vehicle>
    <vehicle id="210" depart="357.00">
        <route edges="-gneE6 -gneE12 -gneE19 gneE27"/>
    </vehicle>
    <vehicle id="211" depart="361.00">
        <route edges="-gneE28 -gneE20 -gneE18 -gneE17 -gneE10 -gneE1"/>
    </vehicle>
    <vehicle id="212" depart="361.00">
        <route edges="-gneE26 -gneE17 -gneE10 gneE9"/>
    </vehicle>
    <vehicle id="213" depart="363.00">
        <route edges="-gneE6 gneE7 -gneE14 -gneE13 gneE12 gneE6"/>
    </vehicle>
    <vehicle id="214" depart="368.00">
        <route edges="-gneE26 -gneE17 -gneE10 -gneE1"/>
    </vehicle>
    <vehicle id="215" depart="368.00">
        <route edges="-gneE26 gneE18 gneE27"/>
    </vehicle>
    <vehicle id="216" depart="369.00">
        <route edges="-gneE26 -gneE17 -gneE10 -gneE1"/>
    </vehicle>
    <vehicle id="217" depart="369.00">
        <route edges="-gneE22 gneE14 gneE15"/>
    </vehicle>
    <vehicle id="218" depart="373.00">
        <route edges="-gneE26 -gneE17 gneE11 -gneE19 -gneE18 gneE26"/>
    </vehicle>
    <vehicle id="219" depart="374.00">
        <route edges="-gneE6 -gneE5 gneE9"/>
    </vehicle>
    <vehicle id="220" depart="378.00">
        <route edges="-gneE23 -gneE20 gneE19 gneE12 gneE6"/>
    </vehicle>
    <vehicle id="221" depart="379.00">
        <route edges="-gneE23 gneE21 gneE14 -gneE7 -gneE5 gneE9"/>
    </vehicle>
    <vehicle id="222" depart="380.00">
        <route edges="-gneE8 -gneE7 -gneE5 gneE9"/>
    </vehicle>
    <vehicle id="223" depart="381.00">
        <route edges="-gneE23 gneE21 gneE14 gneE8"/>
    </vehicle>
    <vehicle id="224" depart="383.00">
        <route edges="-gneE28 -gneE20 -gneE18 -gneE25"/>
    </vehicle>
    <vehicle id="225" depart="387.00">
        <route edges="-gneE9 gneE5 gneE7 gneE15"/>
    </vehicle>
    <vehicle id="226" depart="389.00">
        <route edges="-gneE28 -gneE20 gneE27"/>
    </vehicle>
    <vehicle id="227" depart="389.00">
        <route edges="-gneE9 gneE10 gneE24"/>
    </vehicle>
    <vehicle id="228" depart="391.00">
        <route edges="gneE1 gneE5 gneE7 gneE8"/>
    </vehicle>
    <vehicle id="229" depart="393.00">
        <route edges="-gneE23 gneE21 gneE14 -gneE7 -gneE5 gneE9"/>
    </vehicle>
    <vehicle id="230" depart="394.00">
        <route edges="-gneE22 gneE14 gneE15"/>
    </vehicle>
    <vehicle id="231" depart="395.00">
        <route edges="-gneE6 -gneE5 gneE9"/>
    </vehicle>
    <vehicle id="232" depart="395.00">
        <route edges="-gneE9 gneE5 gneE7 gneE8"/>
    </vehicle>
    <vehicle id="233" depart="396.00">
        <route edges="gneE25 gneE18 gneE20 gneE28"/>
    </vehicle>
    <vehicle id="234" depart="396.00">
        <route edges="gneE25 -gneE17 -gneE10 gneE9"/>
    </vehicle>
    <vehicle id="235" depart="398.00">
        <route edges="-gneE22 -gneE13 -gneE19 gneE27"/>
    </vehicle>
    <vehicle id="236" depart="399.00">
        <route edges="gneE25 -gneE17 -gneE10 gneE5 gneE7 gneE15"/>
    </vehicle>
    <vehicle id="237" depart="402.00">
        <route edges="-gneE22 -gneE21 -gneE20 -gneE18 -gneE25"/>
    </vehicle>
    <vehicle id="238" depart="403.00">
        <route edges="-gneE26 -gneE17 -gneE10 gneE9"/>
    </vehicle>
    <vehicle id="239" depart="403.00">
        <route edges="-gneE8 -gneE14 -gneE21 gneE28"/>
    </vehicle>
    <vehicle id="240" depart="403.00">
        <route edges="-gneE26 -gneE17 -gneE10 gneE9"/>
    </vehicle>
    <vehicle id="241" depart="404.00">
        <route edges="-gneE28 gneE21 -gneE13 -gneE11 gneE24"/>
    </vehicle>
    <vehicle id="242" depart="405.00">
        <route edges="-gneE8 -gneE7 -gneE12 -gneE19 gneE27"/>
    </vehicle>
    <vehicle id="243" depart="406.00">
        <route edges="-gneE28 -gneE20 -gneE18 -gneE17 -gneE10 -gneE1"/>
    </vehicle>
    <vehicle id="244" depart="408.00">
        <route edges="-gneE22 -gneE21 gneE28"/>
    </vehicle>
    <vehicle id="245" depart="408.00">
        <route edges="-gneE15 -gneE14 -gneE21 -gneE20 -gneE18 -gneE25"/>
    </vehicle>
    <vehicle id="246" depart="410.00">
        <route edges="-gneE6 -gneE12 -gneE11 gneE24"/>
    </vehicle>
    <vehicle id="247" depart="417.00">
        <route edges="-gneE26 -gneE17 gneE11 -gneE19 -gneE18 gneE26"/>
    </vehicle>
    <vehicle id="248" depart="419.00">
        <route edges="-gneE6 gneE7 gneE15"/>
    </vehicle>
    <vehicle id="249" depart="420.00">
        <route edges="-gneE22 gneE14 gneE15"/>
    </vehicle>
    <vehicle id="250" depart="420.00">
        <route edges="-gneE6 gneE7 -gneE14 -gneE21 gneE28"/>
    </vehicle>
    <vehicle id="251" depart="422.00">
        <route edges="-gneE26 gneE18 gneE20 gneE28"/>
    </vehicle>
    <vehicle id="252" depart="424.00">
        <route edges="gneE1 gneE5 gneE7 -gneE14 -gneE21 gneE28"/>
    </vehicle>
    <vehicle id="253" depart="428.00">
        <route edges="gneE1 gneE10 gneE17 -gneE25"/>
    </vehicle>
    <vehicle id="254" depart="431.00">
        <route edges="-gneE28 -gneE20 -gneE18 -gneE25"/>
    </vehicle>
    <vehicle id="255" depart="433.00">
        <route edges="-gneE8 -gneE14 -gneE21 -gneE20 -gneE18 -gneE25"/>
    </vehicle>
    <vehicle id="256" depart="434.00">
        <route edges="-gneE9 gneE10 gneE17 -gneE25"/>
    </vehicle>
    <vehicle id="257" depart="435.00">
        <route edges="-gneE15 -gneE7 -gneE5 gneE9"/>
    </vehicle>
    <vehicle id="258" depart="435.00">
        <route edges="-gneE6 -gneE12 gneE13 gneE22"/>
    </vehicle>
    <vehicle id="259" depart="437.00">
        <route edges="gneE1 gneE5 -gneE12 -gneE19 gneE27"/>
    </vehicle>
    <vehicle id="260" depart="438.00">
        <route edges="-gneE28 gneE21 gneE14 gneE15"/>
    </vehicle>
    <vehicle id="261" depart="440.00">
        <route edges="gneE1 gneE5 gneE7 -gneE14 -gneE21 gneE28"/>
    </vehicle>
    <vehicle id="262" depart="442.00">
        <route edges="-gneE9 gneE5 -gneE12 -gneE11 -gneE10 gneE9"/>
    </vehicle>
    <vehicle id="263" depart="445.00">
        <route edges="-gneE9 gneE10 gneE24"/>
    </vehicle>
    <vehicle id="264" depart="447.00">
        <route edges="-gneE26 gneE18 gneE20 gneE28"/>
    </vehicle>
    <vehicle id="265" depart="448.00">