<?xml version="1.0" encoding="UTF-8"?>

<!-- generated on Sun Dec  6 23:24:55 2020 by Eclipse SUMO duarouter Version 1.8.0
<configuration xmlns:xsi="http://www.w3.org/2001/XMLSchema-instance" xsi:noNamespaceSchemaLocation="http://sumo.dlr.de/xsd/duarouterConfiguration.xsd">

    <input>
        <net-file value="nets/3x3/3x3.net.xml"/>
        <route-files value="trips.trips.xml"/>
    </input>

    <output>
        <output-file value="nets/3x3/routes/3x3_1.rou.xml"/>
        <alternatives-output value="nets/3x3/routes/3x3_1.rou.alt.xml"/>
    </output>

    <time>
        <begin value="0"/>
        <end value="3600"/>
    </time>

    <report>
        <no-warnings value="true"/>
        <ignore-errors value="true"/>
        <no-step-log value="true"/>
    </report>

</configuration>
-->

<routes xmlns:xsi="http://www.w3.org/2001/XMLSchema-instance" xsi:noNamespaceSchemaLocation="http://sumo.dlr.de/xsd/routes_file.xsd">
    <vehicle id="0" depart="0.00">
        <route edges="gneE18 gneE19 gneE13 gneE22"/>
    </vehicle>
    <vehicle id="1" depart="2.00">
        <route edges="gneE12 gneE7 -gneE14 -gneE13 -gneE19 gneE20 gneE21"/>
    </vehicle>
    <vehicle id="2" depart="2.00">
        <route edges="-gneE22 -gneE13 -gneE11 -gneE10 -gneE1"/>
    </vehicle>
    <vehicle id="3" depart="5.00">
        <route edges="gneE18 gneE19 gneE13 -gneE21"/>
    </vehicle>
    <vehicle id="4" depart="6.00">
        <route edges="gneE14 -gneE7 -gneE12 gneE13 -gneE21 -gneE20 gneE19"/>
    </vehicle>
    <vehicle id="5" depart="6.00">
        <route edges="-gneE12 -gneE11 -gneE10 gneE5"/>
    </vehicle>
    <vehicle id="6" depart="7.00">
        <route edges="gneE25 -gneE17 -gneE10 gneE5 gneE7 gneE15"/>
    </vehicle>
    <vehicle id="7" depart="8.00">
        <route edges="-gneE21 -gneE20 -gneE18 -gneE17 gneE11"/>
    </vehicle>
    <vehicle id="8" depart="8.00">
        <route edges="gneE14 -gneE7 -gneE12 -gneE11 gneE24"/>
    </vehicle>
    <vehicle id="9" depart="9.00">
        <route edges="-gneE23 gneE21 -gneE13 -gneE11 gneE24"/>
    </vehicle>
    <vehicle id="10" depart="12.00">
        <route edges="gneE5 -gneE12"/>
    </vehicle>
    <vehicle id="11" depart="14.00">
        <route edges="-gneE28 gneE21 -gneE13 -gneE11 gneE17 gneE18"/>
    </vehicle>
    <vehicle id="12" depart="18.00">
        <route edges="gneE17 gneE18 gneE19 gneE12 gneE6"/>
    </vehicle>
    <vehicle id="13" depart="21.00">
        <route edges="gneE19 gneE12 gneE7 -gneE14"/>
    </vehicle>
    <vehicle id="14" depart="23.00">
        <route edges="gneE20 gneE21 -gneE13 -gneE11 gneE17"/>
    </vehicle>
    <vehicle id="15" depart="24.00">
        <route edges="-gneE21 -gneE20 -gneE18"/>
    </vehicle>
    <vehicle id="16" depart="24.00">
        <route edges="gneE13 -gneE21 -gneE20 -gneE18 -gneE17"/>
    </vehicle>
    <vehicle id="17" depart="28.00">
        <route edges="-gneE12 gneE13 -gneE21 -gneE20"/>
    </vehicle>
    <vehicle id="18" depart="37.00">
        <route edges="-gneE7 -gneE12 -gneE11 -gneE10 gneE5 gneE7"/>
    </vehicle>
    <vehicle id="19" depart="38.00">
        <route edges="-gneE8 -gneE7 -gneE12"/>
    </vehicle>
    <vehicle id="20" depart="39.00">
        <route edges="gneE10 gneE17 gneE18 gneE20 gneE21"/>
    </vehicle>
    <vehicle id="21" depart="40.00">
        <route edges="-gneE10 gneE5 gneE7 -gneE14 -gneE21"/>
    </vehicle>
    <vehicle id="22" depart="44.00">
        <route edges="-gneE6 -gneE12 gneE13 gneE14 -gneE7"/>
    </vehicle>
    <vehicle id="23" depart="44.00">
        <route edges="-gneE7 -gneE5 -gneE1"/>
    </vehicle>
    <vehicle id="24" depart="44.00">
        <route edges="-gneE17 gneE11 gneE13"/>
    </vehicle>
    <vehicle id="25" depart="46.00">
        <route edges="-gneE22 gneE14 -gneE7 -gneE5"/>
    </vehicle>
    <vehicle id="26" depart="48.00">
        <route edges="-gneE20 gneE19 gneE13 gneE14"/>
    </vehicle>
    <vehicle id="27" depart="50.00">
        <route edges="-gneE14 -gneE13 -gneE19 gneE27"/>
    </vehicle>
    <vehicle id="28" depart="52.00">
        <route edges="gneE14 -gneE7 -gneE12 -gneE19 gneE20 gneE23"/>
    </vehicle>
    <vehicle id="29" depart="52.00">
        <route edges="gneE5 -gneE12 -gneE19 -gneE18"/>
    </vehicle>
    <vehicle id="30" depart="53.00">
        <route edges="-gneE5 gneE10 gneE11 gneE12 gneE7 -gneE14 -gneE13"/>
    </vehicle>
    <vehicle id="31" depart="53.00">
        <route edges="gneE12 gneE7 -gneE14 -gneE21 -gneE20 gneE27"/>
    </vehicle>
    <vehicle id="32" depart="53.00">
        <route edges="gneE10 gneE11"/>
    </vehicle>
    <vehicle id="33" depart="56.00">
        <route edges="-gneE18 -gneE17 -gneE10 gneE5 -gneE12 -gneE11 gneE17"/>
    </vehicle>
    <vehicle id="34" depart="57.00">
        <route edges="-gneE26 -gneE17 gneE11 -gneE19"/>
    </vehicle>
    <vehicle id="35" depart="57.00">
        <route edges="gneE10 gneE11 gneE13 -gneE21 gneE28"/>
    </vehicle>
    <vehicle id="36" depart="58.00">
        <route edges="gneE18 gneE19 gneE12 -gneE5 gneE9"/>
    </vehicle>
    <vehicle id="37" depart="60.00">
        <route edges="gneE25 -gneE17 gneE11 -gneE19 -gneE18"/>
    </vehicle>
    <vehicle id="38" depart="62.00">
        <route edges="-gneE24 gneE17 gneE18 gneE20 gneE23"/>
    </vehicle>
    <vehicle id="39" depart="66.00">
        <route edges="gneE21 -gneE13 -gneE19 gneE20"/>
    </vehicle>
    <vehicle id="40" depart="66.00">
        <route edges="-gneE20 -gneE18 gneE26"/>
    </vehicle>
    <vehicle id="41" depart="68.00">
        <route edges="-gneE20 gneE19 -gneE11 gneE24"/>
    </vehicle>
    <vehicle id="42" depart="70.00">
        <route edges="gneE11 gneE12 gneE6"/>
    </vehicle>
    <vehicle id="43" depart="73.00">
        <route edges="-gneE13 -gneE11 gneE17 gneE18"/>
    </vehicle>
    <vehicle id="44" depart="77.00">
        <route edges="gneE11 gneE12"/>
    </vehicle>
    <vehicle id="45" depart="77.00">
        <route edges="-gneE12 -gneE19 gneE20 gneE21"/>
    </vehicle>
    <vehicle id="46" depart="78.00">
        <route edges="-gneE9 gneE5 gneE7 gneE15"/>
    </vehicle>
    <vehicle id="47" depart="79.00">
        <route edges="-gneE19 -gneE18"/>
    </vehicle>
    <vehicle id="48" depart="83.00">
        <route edges="gneE10 gneE17 gneE18 gneE20 gneE21"/>
    </vehicle>
    <vehicle id="49" depart="84.00">
        <route edges="-gneE13 gneE12 gneE7 -gneE14"/>
    </vehicle>
    <vehicle id="50" depart="85.00">
        <route edges="-gneE15 -gneE7 -gneE5 gneE9"/>
    </vehicle>
    <vehicle id="51" depart="86.00">
        <route edges="gneE18 gneE20 gneE21 -gneE13 -gneE19"/>
    </vehicle>
    <vehicle id="52" depart="87.00">
        <route edges="-gneE18 -gneE17 -gneE10 gneE5 -gneE12 -gneE11 gneE17"/>
    </vehicle>
    <vehicle id="53" depart="90.00">
        <route edges="gneE18 gneE20 gneE28"/>
    </vehicle>
    <vehicle id="54" depart="90.00">
        <route edges="gneE25 gneE18 gneE20 gneE21 gneE14 gneE8"/>
    </vehicle>
    <vehicle id="55" depart="90.00">
        <route edges="-gneE27 gneE19 gneE13 -gneE21"/>
    </vehicle>
    <vehicle id="56" depart="90.00">
        <route edges="-gneE24 gneE11 gneE12 -gneE5 gneE10"/>
    </vehicle>
    <vehicle id="57" depart="92.00">
        <route edges="-gneE11 gneE17 gneE26"/>
    </vehicle>
    <vehicle id="58" depart="93.00">
        <route edges="gneE1 gneE10 gneE11 gneE13 gneE14 -gneE7"/>
    </vehicle>
    <vehicle id="59" depart="96.00">
        <route edges="gneE14 -gneE7"/>
    </vehicle>
    <vehicle id="60" depart="98.00">
        <route edges="-gneE24 gneE11 gneE13 -gneE21 -gneE20"/>
    </vehicle>
    <vehicle id="61" depart="102.00">
        <route edges="gneE20 gneE21 -gneE13 -gneE19"/>
    </vehicle>
    <vehicle id="62" depart="103.00">
        <route edges="-gneE10 gneE5 gneE7 -gneE14 -gneE21 -gneE20 gneE19"/>
    </vehicle>
    <vehicle id="63" depart="104.00">
        <route edges="-gneE18 -gneE17 gneE11 gneE13 -gneE21"/>
    </vehicle>
    <vehicle id="64" depart="104.00">
        <route edges="gneE11 gneE12 -gneE5"/>
    </vehicle>
    <vehicle id="65" depart="105.00">
        <route edges="gneE25 gneE18 gneE20 gneE21"/>
    </vehicle>
    <vehicle id="66" depart="108.00">
        <route edges="-gneE15 -gneE14"/>
    </vehicle>
    <vehicle id="67" depart="108.00">
        <route edges="gneE7 -gneE14 -gneE13 gneE12 -gneE5 gneE10"/>
    </vehicle>
    <vehicle id="68" depart="111.00">
        <route edges="gneE25 gneE18 gneE19 gneE12"/>
    </vehicle>
    <vehicle id="69" depart="112.00">
        <route edges="-gneE13 -gneE11 -gneE10 gneE5 -gneE12"/>
    </vehicle>
    <vehicle id="70" depart="114.00">
        <route edges="gneE5 -gneE12 -gneE19 gneE27"/>
    </vehicle>
    <vehicle id="71" depart="116.00">
        <route edges="-gneE17 -gneE10 gneE5 -gneE12"/>
    </vehicle>
    <vehicle id="72" depart="116.00">
        <route edges="-gneE19 gneE20 gneE21 -gneE13"/>
    </vehicle>
    <vehicle id="73" depart="118.00">
        <route edges="gneE7 -gneE14 -gneE13 -gneE11 -gneE10"/>
    </vehicle>
    <vehicle id="74" depart="118.00">
        <route edges="gneE13 gneE14 gneE8"/>
    </vehicle>
    <vehicle id="75" depart="121.00">
        <route edges="gneE13 gneE14 -gneE7 -gneE5 gneE9"/>
    </vehicle>
    <vehicle id="76" depart="123.00">
        <route edges="-gneE20 gneE19 gneE13 gneE14 gneE8"/>
    </vehicle>
    <vehicle id="77" depart="135.00">
        <route edges="-gneE14 -gneE21 -gneE20 -gneE18 -gneE25"/>
    </vehicle>
    <vehicle id="78" depart="137.00">
        <route edges="gneE5 -gneE12 -gneE19 gneE20"/>
    </vehicle>
    <vehicle id="79" depart="139.00">
        <route edges="-gneE14 -gneE21 -gneE20 -gneE18 -gneE17"/>
    </vehicle>
    <vehicle id="80" depart="140.00">
        <route edges="gneE1 gneE10 gneE11 gneE13 gneE22"/>
    </vehicle>
    <vehicle id="81" depart="143.00">
        <route edges="gneE18 gneE19 gneE12 gneE7"/>
    </vehicle>
    <vehicle id="82" depart="144.00">
        <route edges="-gneE21 -gneE20 gneE19 gneE12 gneE7 gneE15"/>
    </vehicle>
    <vehicle id="83" depart="149.00">
        <route edges="-gneE28 -gneE20 gneE27"/>
    </vehicle>
    <vehicle id="84" depart="149.00">
        <route edges="gneE25 -gneE17 gneE11 gneE13"/>
    </vehicle>
    <vehicle id="85" depart="149.00">
        <route edges="-gneE5 gneE10 gneE11 gneE12 gneE6"/>
    </vehicle>
    <vehicle id="86" depart="150.00">
        <route edges="-gneE28 -gneE20 gneE19 gneE12 gneE7"/>
    </vehicle>
    <vehicle id="87" depart="151.00">
        <route edges="-gneE18 -gneE17 -gneE10 gneE5 -gneE12 -gneE11"/>
    </vehicle>
    <vehicle id="88" depart="152.00">
        <route edges="-gneE24 gneE17 gneE26"/>
    </vehicle>
    <vehicle id="89" depart="153.00">
        <route edges="-gneE9 gneE10 gneE17 gneE18 gneE20 gneE21"/>
    </vehicle>
    <vehicle id="90" depart="154.00">
        <route edges="-gneE19"/>
    </vehicle>
    <vehicle id="91" depart="156.00">
        <route edges="-gneE21 -gneE20 gneE27"/>
    </vehicle>
    <vehicle id="92" depart="157.00">
        <route edges="gneE18 gneE20 gneE28"/>
    </vehicle>
    <vehicle id="93" depart="158.00">
        <route edges="-gneE15 -gneE14 -gneE13 -gneE11"/>
    </vehicle>
    <vehicle id="94" depart="160.00">
        <route edges="-gneE14 -gneE13 gneE12 gneE7"/>
    </vehicle>
    <vehicle id="95" depart="160.00">
        <route edges="gneE14 -gneE7 -gneE12 -gneE11 gneE24"/>
    </vehicle>
    <vehicle id="96" depart="163.00">
        <route edges="gneE20 gneE21 -gneE13 -gneE11"/>
    </vehicle>
    <vehicle id="97" depart="165.00">
        <route edges="gneE14 -gneE7 -gneE12 -gneE19 gneE20"/>
    </vehicle>
    <vehicle id="98" depart="165.00">
        <route edges="-gneE12 gneE13 gneE22"/>
    </vehicle>
    <vehicle id="99" depart="166.00">
        <route edges="-gneE8 -gneE7 -gneE5 gneE9"/>
    </vehicle>
    <vehicle id="100" depart="166.00">
        <route edges="-gneE9 gneE5 -gneE12 -gneE11 -gneE10 gneE9"/>
    </vehicle>
    <vehicle id="101" depart="168.00">
        <route edges="-gneE12 gneE13 gneE14 gneE15"/>
    </vehicle>
    <vehicle id="102" depart="170.00">
        <route edges="gneE13 -gneE21 -gneE20 gneE19 -gneE11 gneE17"/>
    </vehicle>
    <vehicle id="103" depart="172.00">
        <route edges="-gneE21 -gneE20 gneE19 gneE12 gneE7 gneE8"/>
    </vehicle>
    <vehicle id="104" depart="173.00">
        <route edges="-gneE24 gneE11 gneE13 gneE14 gneE8"/>
    </vehicle>
    <vehicle id="105" depart="174.00">
        <route edges="-gneE6 gneE7 -gneE14"/>
    </vehicle>
    <vehicle id="106" depart="176.00">
        <route edges="gneE21 -gneE13 -gneE19 -gneE18 -gneE17"/>
    </vehicle>
    <vehicle id="107" depart="180.00">
        <route edges="-gneE23 gneE21 -gneE13 -gneE11 gneE17 gneE18"/>
    </vehicle>
    <vehicle id="108" depart="183.00">
        <route edges="gneE25 -gneE17 -gneE10 gneE5 gneE7 -gneE14"/>
    </vehicle>
    <vehicle id="109" depart="184.00">
        <route edges="gneE7 -gneE14 -gneE13 -gneE11 -gneE10 -gneE1"/>
    </vehicle>
    <vehicle id="110" depart="185.00">
        <route edges="gneE18 gneE20 gneE21"/>
    </vehicle>
    <vehicle id="111" depart="186.00">
        <route edges="-gneE23 -gneE20 gneE19 gneE13 -gneE21"/>
    </vehicle>
    <vehicle id="112" depart="188.00">
        <route edges="gneE19 gneE13 -gneE21"/>
    </vehicle>
    <vehicle id="113" depart="189.00">
        <route edges="gneE17 gneE18"/>
    </vehicle>
    <vehicle id="114" depart="190.00">
        <route edges="-gneE28 -gneE20 gneE27"/>
    </vehicle>
    <vehicle id="115" depart="191.00">
        <route edges="-gneE24 gneE11 -gneE19"/>
    </vehicle>
    <vehicle id="116" depart="193.00">
        <route edges="-gneE17 -gneE10 gneE5 -gneE12 -gneE11 gneE17"/>
    </vehicle>
    <vehicle id="117" depart="195.00">
        <route edges="-gneE22 -gneE13 gneE12"/>
    </vehicle>
    <vehicle id="118" depart="196.00">
        <route edges="-gneE13 -gneE19 -gneE18 -gneE25"/>
    </vehicle>
    <vehicle id="119" depart="201.00">
        <route edges="-gneE20 gneE19 gneE12 -gneE5"/>
    </vehicle>
    <vehicle id="120" depart="202.00">
        <route edges="gneE18 gneE19 -gneE11 -gneE10 gneE5"/>
    </vehicle>
    <vehicle id="121" depart="203.00">
        <route edges="-gneE5 gneE10 gneE17 gneE18 gneE20 gneE21"/>
    </vehicle>
    <vehicle id="122" depart="203.00">
        <route edges="-gneE9 gneE5 gneE7 -gneE14 -gneE13"/>
    </vehicle>
    <vehicle id="123" depart="204.00">
        <route edges="-gneE21 -gneE20 -gneE18 -gneE17 gneE11 -gneE19 gneE20"/>
    </vehicle>
    <vehicle id="124" depart="215.00">
        <route edges="gneE18 gneE19 -gneE11 -gneE10 -gneE1"/>
    </vehicle>
    <vehicle id="125" depart="216.00">
        <route edges="-gneE14 -gneE21 -gneE20 gneE19 gneE13 gneE14 -gneE7"/>
    </vehicle>
    <vehicle id="126" depart="216.00">
        <route edges="-gneE12 -gneE11 gneE17"/>
    </vehicle>
    <vehicle id="127" depart="220.00">
        <route edges="gneE11 -gneE19 -gneE18 -gneE17 gneE24"/>
    </vehicle>
    <vehicle id="128" depart="221.00">
        <route edges="-gneE26 -gneE17 -gneE10 gneE5 gneE7 -gneE14"/>
    </vehicle>
    <vehicle id="129" depart="223.00">
        <route edges="-gneE27 gneE20 gneE21 gneE14"/>
    </vehicle>
    <vehicle id="130" depart="223.00">
        <route edges="-gneE22 gneE14 -gneE7 -gneE12"/>
    </vehicle>
    <vehicle id="131" depart="225.00">
        <route edges="-gneE20 gneE19 gneE12 -gneE5"/>
    </vehicle>
    <vehicle id="132" depart="226.00">
        <route edges="-gneE27 gneE19 gneE12 -gneE5"/>
    </vehicle>
    <vehicle id="133" depart="227.00">
        <route edges="-gneE15 -gneE14 -gneE13 -gneE11 -gneE10 gneE5"/>
    </vehicle>
    <vehicle id="134" depart="228.00">
        <route edges="-gneE22 -gneE13 -gneE11 gneE17"/>
    </vehicle>
    <vehicle id="135" depart="234.00">
        <route edges="-gneE11 gneE17 gneE18 gneE20 gneE21"/>
    </vehicle>
    <vehicle id="136" depart="237.00">
        <route edges="gneE14 -gneE7 -gneE5 gneE10 gneE17 gneE18"/>
    </vehicle>
    <vehicle id="137" depart="241.00">
        <route edges="gneE18 gneE19 -gneE11 -gneE10 -gneE1"/>
    </vehicle>
    <vehicle id="138" depart="243.00">
        <route edges="gneE17 gneE18 gneE19 gneE12 -gneE5 gneE10"/>
    </vehicle>
    <vehicle id="139" depart="247.00">
        <route edges="-gneE20 gneE19 -gneE11 gneE17"/>
    </vehicle>
    <vehicle id="140" depart="247.00">
        <route edges="-gneE14 -gneE21 -gneE20 -gneE18 -gneE25"/>
    </vehicle>
    <vehicle id="141" depart="251.00">
        <route edges="-gneE19 -gneE18 -gneE17 -gneE10 -gneE1"/>
    </vehicle>
    <vehicle id="142" depart="253.00">
        <route edges="-gneE9 gneE10 gneE11 gneE13 gneE22"/>
    </vehicle>
    <vehicle id="143" depart="254.00">
        <route edges="-gneE24 -gneE10 -gneE1"/>
    </vehicle>
    <vehicle id="144" depart="256.00">
        <route edges="-gneE19 gneE27"/>
    </vehicle>
    <vehicle id="145" depart="261.00">
        <route edges="gneE20 gneE21 -gneE13 -gneE11 -gneE10"/>
    </vehicle>
    <vehicle id="146" depart="263.00">
        <route edges="-gneE10 gneE5 -gneE12 -gneE19 gneE27"/>
    </vehicle>
    <vehicle id="147" depart="264.00">
        <route edges="gneE17 gneE18 gneE20 gneE21 -gneE13 -gneE19"/>
    </vehicle>
    <vehicle id="148" depart="264.00">
        <route edges="-gneE17 gneE11 -gneE19 -gneE18"/>
    </vehicle>
    <vehicle id="149" depart="265.00">
        <route edges="gneE13 gneE14 -gneE7 -gneE12"/>
    </vehicle>
    <vehicle id="150" depart="268.00">
        <route edges="-gneE20 gneE19 gneE12 gneE7 -gneE14"/>
    </vehicle>
    <vehicle id="151" depart="270.00">
        <route edges="gneE12 -gneE5 gneE10 gneE17"/>
    </vehicle>
    <vehicle id="152" depart="271.00">
        <route edges="-gneE11 -gneE10"/>
    </vehicle>
    <vehicle id="153" depart="271.00">
        <route edges="-gneE20 -gneE18 -gneE17 -gneE10 -gneE1"/>
    </vehicle>
    <vehicle id="154" depart="274.00">
        <route edges="gneE17 gneE18 gneE20 gneE21 gneE14"/>
    </vehicle>
    <vehicle id="155" depart="275.00">
        <route edges="-gneE14 -gneE13 -gneE11 -gneE10 gneE5"/>
    </vehicle>
    <vehicle id="156" depart="276.00">
        <route edges="gneE14 -gneE7 -gneE12 -gneE19 gneE27"/>
    </vehicle>
    <vehicle id="157" depart="277.00">
        <route edges="-gneE12 -gneE11 gneE17 gneE26"/>
    </vehicle>
    <vehicle id="158" depart="277.00">
        <route edges="gneE20 gneE21 -gneE13"/>
    </vehicle>
    <vehicle id="159" depart="280.00">
        <route edges="-gneE17 -gneE10 gneE5 gneE7"/>
    </vehicle>
    <vehicle id="160" depart="281.00">
        <route edges="-gneE23 -gneE20 gneE19"/>
    </vehicle>
    <vehicle id="161" depart="284.00">
        <route edges="gneE19 -gneE11 gneE24"/>
    </vehicle>
    <vehicle id="162" depart="284.00">
        <route edges="-gneE28 -gneE20 -gneE18 gneE26"/>
    </vehicle>
    <vehicle id="163" depart="286.00">
        <route edges="-gneE12 gneE13 -gneE21 gneE28"/>
    </vehicle>
    <vehicle id="164" depart="288.00">
        <route edges="-gneE7 -gneE12 gneE13"/>
    </vehicle>
    <vehicle id="165" depart="288.00">
        <route edges="-gneE17 -gneE10 gneE5 gneE7 -gneE14 -gneE13"/>
    </vehicle>
    <vehicle id="166" depart="290.00">
        <route edges="gneE17 gneE18 gneE20 gneE21 gneE14 gneE8"/>
    </vehicle>
    <vehicle id="167" depart="291.00">
        <route edges="-gneE5 gneE10 gneE11 -gneE19 gneE27"/>
    </vehicle>
    <vehicle id="168" depart="293.00">
        <route edges="-gneE19 -gneE18 gneE26"/>
    </vehicle>
    <vehicle id="169" depart="294.00">
        <route edges="-gneE23 gneE21 gneE14 -gneE7 -gneE5 gneE9"/>
    </vehicle>
    <vehicle id="170" depart="296.00">
        <route edges="-gneE6 gneE7 -gneE14 -gneE21 -gneE20"/>
    </vehicle>
    <vehicle id="171" depart="299.00">
        <route edges="gneE5 -gneE12 -gneE19 -gneE18 -gneE25"/>
    </vehicle>
    <vehicle id="172" depart="299.00">
        <route edges="-gneE17 -gneE10 gneE5 -gneE12"/>
    </vehicle>
    <vehicle id="173" depart="300.00">
        <route edges="gneE12 gneE7"/>
    </vehicle>
    <vehicle id="174" depart="303.00">
        <route edges="-gneE10 gneE5 -gneE12 -gneE19 gneE20"/>
    </vehicle>
    <vehicle id="175" depart="304.00">
        <route edges="-gneE20 -gneE18 -gneE17 gneE11 -gneE19"/>
    </vehicle>
    <vehicle id="176" depart="304.00">
        <route edges="gneE1 gneE5 gneE7 -gneE14 -gneE21 -gneE20"/>
    </vehicle>
    <vehicle id="177" depart="307.00">
        <route edges="-gneE17 gneE11 -gneE19 gneE27"/>
    </vehicle>
    <vehicle id="178" depart="307.00">
        <route edges="gneE1 gneE5 -gneE12 -gneE19 -gneE18"/>
    </vehicle>
    <vehicle id="179" depart="311.00">
        <route edges="-gneE23 gneE21 gneE14 -gneE7 -gneE5 gneE10"/>
    </vehicle>
    <vehicle id="180" depart="312.00">
        <route edges="gneE11 gneE13 gneE14"/>
    </vehicle>
    <vehicle id="181" depart="316.00">
        <route edges="-gneE7 -gneE12"/>
    </vehicle>
    <vehicle id="182" depart="318.00">
        <route edges="gneE10 gneE17 gneE18 gneE20 gneE21"/>
    </vehicle>
    <vehicle id="183" depart="322.00">
        <route edges="-gneE23 -gneE20 -gneE18 -gneE17 -gneE10"/>
    </vehicle>
    <vehicle id="184" depart="323.00">
        <route edges="-gneE24 gneE11 gneE13 gneE14"/>
    </vehicle>
    <vehicle id="185" depart="323.00">
        <route edges="-gneE21 -gneE20 -gneE18 -gneE17 -gneE10 gneE5 -gneE12"/>
    </vehicle>
    <vehicle id="186" depart="323.00">
        <route edges="-gneE13 -gneE19"/>
    </vehicle>
    <vehicle id="187" depart="327.00">
        <route edges="-gneE26 gneE18 gneE19 gneE12"/>
    </vehicle>
    <vehicle id="188" depart="328.00">
        <route edges="gneE10 gneE11 gneE12 -gneE5 gneE9"/>
    </vehicle>
    <vehicle id="189" depart="331.00">
        <route edges="-gneE18 -gneE17 gneE11 -gneE19 gneE20 gneE21"/>
    </vehicle>
    <vehicle id="190" depart="332.00">
        <route edges="-gneE19 -gneE18 -gneE17 -gneE10 gneE9"/>
    </vehicle>
    <vehicle id="191" depart="334.00">
        <route edges="-gneE17 gneE11 -gneE19 gneE27"/>
    </vehicle>
    <vehicle id="192" depart="335.00">
        <route edges="-gneE8 -gneE7 -gneE12"/>
    </vehicle>
    <vehicle id="193" depart="343.00">
        <route edges="gneE19 -gneE11 -gneE10 gneE5"/>
    </vehicle>
    <vehicle id="194" depart="345.00">
        <route edges="-gneE13 gneE12 gneE7 -gneE14 -gneE21"/>
    </vehicle>
    <vehicle id="195" depart="347.00">
        <route edges="gneE25 gneE18 gneE19 gneE12 gneE6"/>
    </vehicle>
    <vehicle id="196" depart="349.00">
        <route edges="-gneE13 -gneE19 gneE20 gneE21 gneE14"/>
    </vehicle>
    <vehicle id="197" depart="352.00">
        <route edges="-gneE12 -gneE19 gneE20 gneE21 -gneE13"/>
    </vehicle>
    <vehicle id="198" depart="353.00">
        <route edges="-gneE26 gneE18 gneE20 gneE21 gneE14 gneE8"/>
    </vehicle>
    <vehicle id="199" depart="353.00">
        <route edges="gneE11 gneE12 -gneE5 gneE10 gneE17"/>
    </vehicle>
    <vehicle id="200" depart="353.00">
        <route edges="-gneE23 -gneE20 gneE19 gneE12 gneE7"/>
    </vehicle>
    <vehicle id="201" depart="354.00">
        <route edges="-gneE5 gneE10 gneE11 gneE13 gneE14 -gneE7"/>
    </vehicle>
    <vehicle id="202" depart="355.00">
        <route edges="gneE14 gneE15"/>
    </vehicle>
    <vehicle id="203" depart="356.00">
        <route edges="-gneE28 gneE21 gneE14 -gneE7 -gneE12"/>
    </vehicle>
    <vehicle id="204" depart="358.00">
        <route edges="-gneE14 -gneE21 -gneE20 gneE19"/>
    </vehicle>
    <vehicle id="205" depart="360.00">
        <route edges="gneE10 gneE11 gneE13 gneE14 -gneE7"/>
    </vehicle>
    <vehicle id="206" depart="365.00">
        <route edges="-gneE24 gneE11 gneE13"/>
    </vehicle>
    <vehicle id="207" depart="368.00">
        <route edges="-gneE14 -gneE21 -gneE20"/>
    </vehicle>
    <vehicle id="208" depart="370.00">
        <route edges="-gneE27 gneE19 -gneE11 gneE17"/>
    </vehicle>
    <vehicle id="209" depart="372.00">
        <route edges="gneE21 -gneE13 -gneE11 gneE17"/>
    </vehicle>
    <vehicle id="210" depart="375.00">
        <route edges="gneE19 gneE12 gneE7 -gneE14"/>
    </vehicle>
    <vehicle id="211" depart="378.00">
        <route edges="-gneE7 -gneE12 -gneE19 -gneE18"/>
    </vehicle>
    <vehicle id="212" depart="380.00">
        <route edges="gneE14 -gneE7 -gneE12"/>
    </vehicle>
    <vehicle id="213" depart="380.00">
        <route edges="gneE17 gneE18 gneE19 gneE13 -gneE21 -gneE20 -gneE18 -gneE17"/>
    </vehicle>
    <vehicle id="214" depart="381.00">
        <route edges="-gneE10 gneE5 gneE7"/>
    </vehicle>
    <vehicle id="215" depart="381.00">
        <route edges="gneE1 gneE10 gneE17 -gneE25"/>
    </vehicle>
    <vehicle id="216" depart="383.00">
        <route edges="gneE21 gneE14 gneE15"/>
    </vehicle>
    <vehicle id="217" depart="384.00">
        <route edges="-gneE27 gneE19 gneE13 -gneE21"/>
    </vehicle>
    <vehicle id="218" depart="385.00">
        <route edges="gneE20 gneE21 -gneE13 -gneE11 gneE17"/>
    </vehicle>
    <vehicle id="219" depart="388.00">
        <route edges="gneE18 gneE20 gneE21 gneE14 gneE8"/>
    </vehicle>
    <vehicle id="220" depart="390.00">
        <route edges="gneE18 gneE19 gneE12 -gneE5 gneE10 gneE11"/>
    </vehicle>
    <vehicle id="221" depart="393.00">
        <route edges="gneE5 gneE7 gneE15"/>
    </vehicle>
    <vehicle id="222" depart="394.00">
        <route edges="gneE21 -gneE13 gneE12 gneE7 -gneE14 -gneE21"/>
    </vehicle>
    <vehicle id="223" depart="395.00">
        <route edges="-gneE15 -gneE7 -gneE5 gneE10 gneE11"/>
    </vehicle>
    <vehicle id="224" depart="396.00">
        <route edges="-gneE17 gneE11 gneE13 gneE14"/>
    </vehicle>
    <vehicle id="225" depart="397.00">
        <route edges="gneE14 -gneE7 -gneE12 -gneE11"/>
    </vehicle>
    <vehicle id="226" depart="398.00">
        <route edges="-gneE28 gneE21 -gneE13 -gneE11 gneE17 gneE18"/>
    </vehicle>
    <vehicle id="227" depart="399.00">
        <route edges="-gneE20 -gneE18 -gneE17 gneE11 -gneE19"/>
    </vehicle>
    <vehicle id="228" depart="402.00">
        <route edges="-gneE12 -gneE11 -gneE10 gneE5 gneE7 -gneE14"/>
    </vehicle>
    <vehicle id="229" depart="402.00">
        <route edges="-gneE18"/>
    </vehicle>
    <vehicle id="230" depart="402.00">
        <route edges="-gneE6 -gneE5 gneE10 gneE17"/>
    </vehicle>
    <vehicle id="231" depart="403.00">
        <route edges="-gneE24 gneE17 -gneE25"/>
    </vehicle>
    <vehicle id="232" depart="406.00">
        <route edges="-gneE5 gneE10 gneE17 gneE18 gneE20 gneE23"/>
    </vehicle>
    <vehicle id="233" depart="407.00">
        <route edges="gneE11 -gneE19"/>
    </vehicle>
    <vehicle id="234" depart="408.00">
        <route edges="gneE5 -gneE12 gneE13"/>
    </vehicle>
    <vehicle id="235" depart="409.00">
        <route edges="-gneE14 -gneE21 -gneE20 -gneE18"/>
    </vehicle>
    <vehicle id="236" depart="409.00">
        <route edges="-gneE14 -gneE13 gneE12"/>
    </vehicle>
    <vehicle id="237" depart="410.00">
        <route edges="gneE17 gneE18 gneE19 gneE12 gneE7 gneE15"/>
    </vehicle>
    <vehicle id="238" depart="411.00">
        <route edges="gneE25 -gneE17 gneE11 -gneE19 -gneE18"/>
    </vehicle>
    <vehicle id="239" depart="411.00">
        <route edges="gneE21 -gneE13 -gneE19 gneE20 gneE23"/>
    </vehicle>
    <vehicle id="240" depart="414.00">
        <route edges="gneE10 gneE11 gneE13 gneE14 -gneE7"/>
    </vehicle>
    <vehicle id="241" depart="415.00">
        <route edges="-gneE17 gneE11 -gneE19 gneE20"/>
    </vehicle>
    <vehicle id="242" depart="417.00">
        <route edges="-gneE19 gneE20 gneE21 -gneE13 -gneE11 gneE17"/>
    </vehicle>
    <vehicle id="243" depart="418.00">
        <route edges="gneE13 gneE14 -gneE7 -gneE5 gneE9"/>
    </vehicle>
    <vehicle id="244" depart="418.00">
        <route edges="gneE12 gneE7 -gneE14 -gneE13 -gneE11 -gneE10 gneE5 -gneE12"/>
    </vehicle>
    <vehicle id="245" depart="418.00">
        <route edges="-gneE17 gneE11 gneE12 -gneE5"/>
    </vehicle>
    <vehicle id="246" depart="419.00">
        <route edges="-gneE7 -gneE5"/>
    </vehicle>
    <vehicle id="247" depart="423.00">
        <route edges="-gneE11 -gneE10 gneE5 gneE7 gneE8"/>
    </vehicle>
    <vehicle id="248" depart="424.00">
        <route edges="-gneE8 -gneE7 -gneE12 -gneE19"/>
    </vehicle>
    <vehicle id="249" depart="424.00">
        <route edges="gneE25 gneE18 gneE19"/>
    </vehicle>
    <vehicle id="250" depart="425.00">
        <route edges="-gneE23 gneE21 gneE14"/>
    </vehicle>
    <vehicle id="251" depart="427.00">
        <route edges="-gneE6 -gneE5"/>
    </vehicle>
    <vehicle id="252" depart="429.00">
        <route edges="-gneE20 gneE19 -gneE11 gneE17 gneE18"/>
    </vehicle>
    <vehicle id="253" depart="430.00">
        <route edges="gneE1 gneE5 gneE7 gneE8"/>
    </vehicle>
    <vehicle id="254" depart="430.00">
        <route edges="gneE25 -gneE17 gneE24"/>
    </vehicle>
    <vehicle id="255" depart="432.00">
        <route edges="-gneE17 gneE11 -gneE19 gneE20 gneE23"/>
    </vehicle>
    <vehicle id="256" depart="432.00">
        <route edges="gneE25 -gneE17 gneE11 gneE13 -gneE21"/>
    </vehicle>
    <vehicle id="257" depart="433.00">
        <route edges="-gneE27 gneE19 -gneE11"/>
    </vehicle>
    <vehicle id="258" depart="436.00">
        <route edges="-gneE19 -gneE18 -gneE17 -gneE10 gneE5 gneE7"/>
    </vehicle>
    <vehicle id="259" depart="437.00">
        <route edges="-gneE20 -gneE18 -gneE17 gneE11"/>
    </vehicle>
    <vehicle id="260" depart="437.00">
        <route edges="-gneE23 -gneE20 gneE19 gneE13 -gneE21 gneE23"/>
    </vehicle>
    <vehicle id="261" depart="438.00">
        <route edges="-gneE19 gneE27"/>
    </vehicle>
    <vehicle id="262" depart="440.00">