<?xml version="1.0" encoding="UTF-8"?>
<additional xmlns:xsi="http://www.w3.org/2001/XMLSchema-instance" xsi:noNamespaceSchemaLocation="http://sumo.dlr.de/xsd/additional_file.xsd">
	<laneAreaDetector id="e2_-gneE17_1" lane="-gneE17_1" length="150.00" endPos="479.20" tl="gneJ12" file="e2_-gneE17_1.log"/>
	<laneAreaDetector id="e2_gneE10_1" lane="gneE10_1" length="150.00" endPos="479.20" tl="gneJ12" file="e2_gneE10_1.log"/>
	<laneAreaDetector id="e2_-gneE17_0" lane="-gneE17_0" length="150.00" endPos="479.20" tl="gneJ12" file="e2_-gneE17_0.log"/>
	<laneAreaDetector id="e2_-gneE11_1" lane="-gneE11_1" length="150.00" endPos="479.20" tl="gneJ12" file="e2_-gneE11_1.log"/>
	<laneAreaDetector id="e2_-gneE11_0" lane="-gneE11_0" length="150.00" endPos="479.20" tl="gneJ12" file="e2_-gneE11_0.log"/>
	<laneAreaDetector id="e2_gneE10_0" lane="gneE10_0" length="150.00" endPos="479.20" tl="gneJ12" file="e2_gneE10_0.log"/>
	<laneAreaDetector id="e2_-gneE24_0" lane="-gneE24_0" length="150.00" endPos="489.60" tl="gneJ12" file="e2_-gneE24_0.log"/>
	<laneAreaDetector id="e2_-gneE24_1" lane="-gneE24_1" length="150.00" endPos="489.60" tl="gneJ12" file="e2_-gneE24_1.log"/>
	<laneAreaDetector id="e2_-gneE13_0" lane="-gneE13_0" length="150.00" endPos="479.20" tl="gneJ13" file="e2_-gneE13_0.log"/>
	<laneAreaDetector id="e2_-gneE13_1" lane="-gneE13_1" length="150.00" endPos="479.20" tl="gneJ13" file="e2_-gneE13_1.log"/>
	<laneAreaDetector id="e2_gneE19_1" lane="gneE19_1" length="150.00" endPos="479.20" tl="gneJ13" file="e2_gneE19_1.log"/>
	<laneAreaDetector id="e2_gneE11_0" lane="gneE11_0" length="150.00" endPos="479.20" tl="gneJ13" file="e2_gneE11_0.log"/>
	<laneAreaDetector id="e2_gneE11_1" lane="gneE11_1" length="150.00" endPos="479.20" tl="gneJ13" file="e2_gneE11_1.log"/>
	<laneAreaDetector id="e2_-gneE12_0" lane="-gneE12_0" length="150.00" endPos="479.20" tl="gneJ13" file="e2_-gneE12_0.log"/>
	<laneAreaDetector id="e2_-gneE12_1" lane="-gneE12_1" length="150.00" endPos="479.20" tl="gneJ13" file="e2_-gneE12_1.log"/>
	<laneAreaDetector id="e2_gneE19_0" lane="gneE19_0" length="150.00" endPos="479.20" tl="gneJ13" file="e2_gneE19_0.log"/>
	<laneAreaDetector id="e2_-gneE14_1" lane="-gneE14_1" length="150.00" endPos="479.20" tl="gneJ14" file="e2_-gneE14_1.log"/>
	<laneAreaDetector id="e2_gneE21_1" lane="gneE21_1" length="150.00" endPos="479.20" tl="gneJ14" file="e2_gneE21_1.log"/>
	<laneAreaDetector id="e2_-gneE22_1" lane="-gneE22_1" length="150.00" endPos="489.60" tl="gneJ14" file="e2_-gneE22_1.log"/>
	<laneAreaDetector id="e2_-gneE14_0" lane="-gneE14_0" length="150.00" endPos="479.20" tl="gneJ14" file="e2_-gneE14_0.log"/>
	<laneAreaDetector id="e2_-gneE22_0" lane="-gneE22_0" length="150.00" endPos="489.60" tl="gneJ14" file="e2_-gneE22_0.log"/>
	<laneAreaDetector id="e2_gneE13_0" lane="gneE13_0" length="150.00" endPos="479.20" tl="gneJ14" file="e2_gneE13_0.log"/>
	<laneAreaDetector id="e2_gneE13_1" lane="gneE13_1" length="150.00" endPos="479.20" tl="gneJ14" file="e2_gneE13_1.log"/>
	<laneAreaDetector id="e2_gneE21_0" lane="gneE21_0" length="150.00" endPos="479.20" tl="gneJ14" file="e2_gneE21_0.log"/>
	<laneAreaDetector id="e2_gneE17_1" lane="gneE17_1" length="150.00" endPos="479.20" tl="gneJ17" file="e2_gneE17_1.log"/>
	<laneAreaDetector id="e2_-gneE18_1" lane="-gneE18_1" length="150.00" endPos="479.20" tl="gneJ17" file="e2_-gneE18_1.log"/>
	<laneAreaDetector id="e2_gneE17_0" lane="gneE17_0" length="150.00" endPos="479.20" tl="gneJ17" file="e2_gneE17_0.log"/>
	<laneAreaDetector id="e2_-gneE18_0" lane="-gneE18_0" length="150.00" endPos="479.20" tl="gneJ17" file="e2_-gneE18_0.log"/>
	<laneAreaDetector id="e2_-gneE26_1" lane="-gneE26_1" length="150.00" endPos="489.60" tl="gneJ17" file="e2_-gneE26_1.log"/>
	<laneAreaDetector id="e2_-gneE26_0" lane="-gneE26_0" length="150.00" endPos="489.60" tl="gneJ17" file="e2_-gneE26_0.log"/>
	<laneAreaDetector id="e2_gneE25_1" lane="gneE25_1" length="150.00" endPos="489.60" tl="gneJ17" file="e2_gneE25_1.log"/>
	<laneAreaDetector id="e2_gneE25_0" lane="gneE25_0" length="150.00" endPos="489.60" tl="gneJ17" file="e2_gneE25_0.log"/>
	<laneAreaDetector id="e2_-gneE20_0" lane="-gneE20_0" length="150.00" endPos="479.20" tl="gneJ18" file="e2_-gneE20_0.log"/>
	<laneAreaDetector id="e2_-gneE27_0" lane="-gneE27_0" length="150.00" endPos="489.60" tl="gneJ18" file="e2_-gneE27_0.log"/>
	<laneAreaDetector id="e2_gneE18_0" lane="gneE18_0" length="150.00" endPos="479.20" tl="gneJ18" file="e2_gneE18_0.log"/>
	<laneAreaDetector id="e2_-gneE19_0" lane="-gneE19_0" length="150.00" endPos="479.20" tl="gneJ18" file="e2_-gneE19_0.log"/>
	<laneAreaDetector id="e2_-gneE27_1" lane="-gneE27_1" length="150.00" endPos="489.60" tl="gneJ18" file="e2_-gneE27_1.log"/>
	<laneAreaDetector id="e2_-gneE20_1" lane="-gneE20_1" length="150.00" endPos="479.20" tl="gneJ18" file="e2_-gneE20_1.log"/>
	<laneAreaDetector id="e2_-gneE19_1" lane="-gneE19_1" length="150.00" endPos="479.20" tl="gneJ18" file="e2_-gneE19_1.log"/>
	<laneAreaDetector id="e2_gneE18_1" lane="gneE18_1" length="150.00" endPos="479.20" tl="gneJ18" file="e2_gneE18_1.log"/>
	<laneAreaDetector id="e2_-gneE21_1" lane="-gneE21_1" length="150.00" endPos="479.20" tl="gneJ19" file="e2_-gneE21_1.log"/>
	<laneAreaDetector id="e2_-gneE23_0" lane="-gneE23_0" length="150.00" endPos="489.60" tl="gneJ19" file="e2_-gneE23_0.log"/>
	<laneAreaDetector id="e2_gneE20_0" lane="gneE20_0" length="150.00" endPos="479.20" tl="gneJ19" file="e2_gneE20_0.log"/>
	<laneAreaDetector id="e2_gneE20_1" lane="gneE20_1" length="150.00" endPos="479.20" tl="gneJ19" file="e2_gneE20_1.log"/>
	<laneAreaDetector id="e2_-gneE28_1" lane="-gneE28_1" length="150.00" endPos="489.60" tl="gneJ19" file="e2_-gneE28_1.log"/>
	<laneAreaDetector id="e2_-gneE21_0" lane="-gneE21_0" length="150.00" endPos="479.20" tl="gneJ19" file="e2_-gneE21_0.log"/>
	<laneAreaDetector id="e2_-gneE23_1" lane="-gneE23_1" length="150.00" endPos="489.60" tl="gneJ19" file="e2_-gneE23_1.log"/>
	<laneAreaDetector id="e2_-gneE28_0" lane="-gneE28_0" length="150.00" endPos="489.60" tl="gneJ19" file="e2_-gneE28_0.log"/>
	<laneAreaDetector id="e2_gneE1_0" lane="gneE1_0" length="150.00" endPos="489.60" tl="gneJ3" file="e2_gneE1_0.log"/>
	<laneAreaDetector id="e2_-gneE10_1" lane="-gneE10_1" length="150.00" endPos="479.20" tl="gneJ3" file="e2_-gneE10_1.log"/>
	<laneAreaDetector id="e2_-gneE9_0" lane="-gneE9_0" length="150.00" endPos="489.60" tl="gneJ3" file="e2_-gneE9_0.log"/>
	<laneAreaDetector id="e2_-gneE5_0" lane="-gneE5_0" length="150.00" endPos="479.20" tl="gneJ3" file="e2_-gneE5_0.log"/>
	<laneAreaDetector id="e2_gneE1_1" lane="gneE1_1" length="150.00" endPos="489.60" tl="gneJ3" file="e2_gneE1_1.log"/>
	<laneAreaDetector id="e2_-gneE10_0" lane="-gneE10_0" length="150.00" endPos="479.20" tl="gneJ3" file="e2_-gneE10_0.log"/>
	<laneAreaDetector id="e2_-gneE9_1" lane="-gneE9_1" length="150.00" endPos="489.60" tl="gneJ3" file="e2_-gneE9_1.log"/>
	<laneAreaDetector id="e2_-gneE5_1" lane="-gneE5_1" length="150.00" endPos="479.20" tl="gneJ3" file="e2_-gneE5_1.log"/>
	<laneAreaDetector id="e2_-gneE7_0" lane="-gneE7_0" length="150.00" endPos="479.20" tl="gneJ7" file="e2_-gneE7_0.log"/>
	<laneAreaDetector id="e2_gneE5_1" lane="gneE5_1" length="150.00" endPos="479.20" tl="gneJ7" file="e2_gneE5_1.log"/>
	<laneAreaDetector id="e2_-gneE7_1" lane="-gneE7_1" length="150.00" endPos="479.20" tl="gneJ7" file="e2_-gneE7_1.log"/>
	<laneAreaDetector id="e2_gneE5_0" lane="gneE5_0" length="150.00" endPos="479.20" tl="gneJ7" file="e2_gneE5_0.log"/>
	<laneAreaDetector id="e2_gneE12_0" lane="gneE12_0" length="150.00" endPos="479.20" tl="gneJ7" file="e2_gneE12_0.log"/>
	<laneAreaDetector id="e2_gneE12_1" lane="gneE12_1" length="150.00" endPos="479.20" tl="gneJ7" file="e2_gneE12_1.log"/>
	<laneAreaDetector id="e2_-gneE6_1" lane="-gneE6_1" length="150.00" endPos="489.60" tl="gneJ7" file="e2_-gneE6_1.log"/>
	<laneAreaDetector id="e2_-gneE6_0" lane="-gneE6_0" length="150.00" endPos="489.60" tl="gneJ7" file="e2_-gneE6_0.log"/>
	<laneAreaDetector id="e2_gneE14_0" lane="gneE14_0" length="150.00" endPos="479.20" tl="gneJ9" file="e2_gneE14_0.log"/>
	<laneAreaDetector id="e2_gneE14_1" lane="gneE14_1" length="150.00" endPos="479.20" tl="gneJ9" file="e2_gneE14_1.log"/>
	<laneAreaDetector id="e2_gneE7_1" lane="gneE7_1" length="150.00" endPos="479.20" tl="gneJ9" file="e2_gneE7_1.log"/>
	<laneAreaDetector id="e2_-gneE8_0" lane="-gneE8_0" length="150.00" endPos="489.60" tl="gneJ9" file="e2_-gneE8_0.log"/>
	<laneAreaDetector id="e2_-gneE15_1" lane="-gneE15_1" length="150.00" endPos="489.60" tl="gneJ9" file="e2_-gneE15_1.log"/>
	<laneAreaDetector id="e2_gneE7_0" lane="gneE7_0" length="150.00" endPos="479.20" tl="gneJ9" file="e2_gneE7_0.log"/>
	<laneAreaDetector id="e2_-gneE15_0" lane="-gneE15_0" length="150.00" endPos="489.60" tl="gneJ9" file="e2_-gneE15_0.log"/>
	<laneAreaDetector id="e2_-gneE8_1" lane="-gneE8_1" length="150.00" endPos="489.60" tl="gneJ9" file="e2_-gneE8_1.log"/>
</additional>
