<?xml version="1.0" encoding="UTF-8"?>

<!-- generated on Tue 01 Dec 2020 02:18:20 PM PST by Eclipse SUMO netedit Version 1.7.0
<configuration xmlns:xsi="http://www.w3.org/2001/XMLSchema-instance" xsi:noNamespaceSchemaLocation="http://sumo.dlr.de/xsd/netconvertConfiguration.xsd">

    <input>
        <sumo-net-file value="/home/balbok/Documents/School/utc-reproduction/nets/3x3/wip-fixing-lights.net.xml"/>
    </input>

    <output>
        <output-file value="/home/balbok/Documents/School/utc-reproduction/nets/3x3/wip-fixing-lights.net.xml"/>
    </output>

    <processing>
        <geometry.min-radius.fix.railways value="false"/>
        <geometry.max-grade.fix value="false"/>
        <offset.disable-normalization value="true"/>
        <lefthand value="false"/>
    </processing>

    <junctions>
        <no-turnarounds value="true"/>
        <junctions.corner-detail value="5"/>
        <junctions.limit-turn-speed value="5.5"/>
        <rectangular-lane-cut value="false"/>
    </junctions>

    <pedestrian>
        <walkingareas value="false"/>
    </pedestrian>

    <report>
        <aggregate-warnings value="5"/>
    </report>

</configuration>
-->

<net version="1.6" junctionCornerDetail="5" limitTurnSpeed="5.50" xmlns:xsi="http://www.w3.org/2001/XMLSchema-instance" xsi:noNamespaceSchemaLocation="http://sumo.dlr.de/xsd/net_file.xsd">

    <location netOffset="0.00,0.00" convBoundary="100.00,-1200.00,2100.00,800.00" origBoundary="-10000000000.00,-10000000000.00,10000000000.00,10000000000.00" projParameter="!"/>

    <edge id=":gneJ12_0" function="internal">
        <lane id=":gneJ12_0_0" index="0" speed="6.51" length="9.03" shape="595.20,-189.60 594.85,-192.05 593.80,-193.80 592.05,-194.85 589.60,-195.20"/>
    </edge>
    <edge id=":gneJ12_1" function="internal">
        <lane id=":gneJ12_1_0" index="0" speed="13.89" length="20.80" shape="595.20,-189.60 595.20,-210.40"/>
        <lane id=":gneJ12_1_1" index="1" speed="13.89" length="20.80" shape="598.40,-189.60 598.40,-210.40"/>
    </edge>
    <edge id=":gneJ12_3" function="internal">
        <lane id=":gneJ12_3_0" index="0" speed="9.26" length="6.96" shape="598.40,-189.60 599.15,-194.85 600.00,-196.27"/>
    </edge>
    <edge id=":gneJ12_16" function="internal">
        <lane id=":gneJ12_16_0" index="0" speed="9.26" length="12.40" shape="600.00,-196.27 601.40,-198.60 605.15,-200.85 610.40,-201.60"/>
    </edge>
    <edge id=":gneJ12_4" function="internal">
        <lane id=":gneJ12_4_0" index="0" speed="6.51" length="9.03" shape="610.40,-195.20 607.95,-194.85 606.20,-193.80 605.15,-192.05 604.80,-189.60"/>
    </edge>
    <edge id=":gneJ12_5" function="internal">
        <lane id=":gneJ12_5_0" index="0" speed="13.89" length="20.80" shape="610.40,-195.20 589.60,-195.20"/>
        <lane id=":gneJ12_5_1" index="1" speed="13.89" length="20.80" shape="610.40,-198.40 589.60,-198.40"/>
    </edge>
    <edge id=":gneJ12_7" function="internal">
        <lane id=":gneJ12_7_0" index="0" speed="9.26" length="6.96" shape="610.40,-198.40 605.15,-199.15 603.73,-200.00"/>
    </edge>
    <edge id=":gneJ12_17" function="internal">
        <lane id=":gneJ12_17_0" index="0" speed="9.26" length="12.40" shape="603.73,-200.00 601.40,-201.40 599.15,-205.15 598.40,-210.40"/>
    </edge>
    <edge id=":gneJ12_8" function="internal">
        <lane id=":gneJ12_8_0" index="0" speed="6.51" length="9.03" shape="604.80,-210.40 605.15,-207.95 606.20,-206.20 607.95,-205.15 610.40,-204.80"/>
    </edge>
    <edge id=":gneJ12_9" function="internal">
        <lane id=":gneJ12_9_0" index="0" speed="13.89" length="20.80" shape="604.80,-210.40 604.80,-189.60"/>
        <lane id=":gneJ12_9_1" index="1" speed="13.89" length="20.80" shape="601.60,-210.40 601.60,-189.60"/>
    </edge>
    <edge id=":gneJ12_11" function="internal">
        <lane id=":gneJ12_11_0" index="0" speed="9.26" length="6.96" shape="601.60,-210.40 600.85,-205.15 600.00,-203.73"/>
    </edge>
    <edge id=":gneJ12_18" function="internal">
        <lane id=":gneJ12_18_0" index="0" speed="9.26" length="12.40" shape="600.00,-203.73 598.60,-201.40 594.85,-199.15 589.60,-198.40"/>
    </edge>
    <edge id=":gneJ12_12" function="internal">
        <lane id=":gneJ12_12_0" index="0" speed="6.51" length="9.03" shape="589.60,-204.80 592.05,-205.15 593.80,-206.20 594.85,-207.95 595.20,-210.40"/>
    </edge>
    <edge id=":gneJ12_13" function="internal">
        <lane id=":gneJ12_13_0" index="0" speed="13.89" length="20.80" shape="589.60,-204.80 610.40,-204.80"/>
        <lane id=":gneJ12_13_1" index="1" speed="13.89" length="20.80" shape="589.60,-201.60 610.40,-201.60"/>
    </edge>
    <edge id=":gneJ12_15" function="internal">
        <lane id=":gneJ12_15_0" index="0" speed="9.26" length="6.96" shape="589.60,-201.60 594.85,-200.85 596.27,-200.00"/>
    </edge>
    <edge id=":gneJ12_19" function="internal">
        <lane id=":gneJ12_19_0" index="0" speed="9.26" length="12.40" shape="596.27,-200.00 598.60,-198.60 600.85,-194.85 601.60,-189.60"/>
    </edge>
    <edge id=":gneJ13_0" function="internal">
        <lane id=":gneJ13_0_0" index="0" speed="6.51" length="9.03" shape="1095.20,-189.60 1094.85,-192.05 1093.80,-193.80 1092.05,-194.85 1089.60,-195.20"/>
    </edge>
    <edge id=":gneJ13_1" function="internal">
        <lane id=":gneJ13_1_0" index="0" speed="13.89" length="20.80" shape="1095.20,-189.60 1095.20,-210.40"/>
        <lane id=":gneJ13_1_1" index="1" speed="13.89" length="20.80" shape="1098.40,-189.60 1098.40,-210.40"/>
    </edge>
    <edge id=":gneJ13_3" function="internal">
        <lane id=":gneJ13_3_0" index="0" speed="9.26" length="6.96" shape="1098.40,-189.60 1099.15,-194.85 1100.00,-196.27"/>
    </edge>
    <edge id=":gneJ13_16" function="internal">
        <lane id=":gneJ13_16_0" index="0" speed="9.26" length="12.40" shape="1100.00,-196.27 1101.40,-198.60 1105.15,-200.85 1110.40,-201.60"/>
    </edge>
    <edge id=":gneJ13_4" function="internal">
        <lane id=":gneJ13_4_0" index="0" speed="6.51" length="9.03" shape="1110.40,-195.20 1107.95,-194.85 1106.20,-193.80 1105.15,-192.05 1104.80,-189.60"/>
    </edge>
    <edge id=":gneJ13_5" function="internal">
        <lane id=":gneJ13_5_0" index="0" speed="13.89" length="20.80" shape="1110.40,-195.20 1089.60,-195.20"/>
        <lane id=":gneJ13_5_1" index="1" speed="13.89" length="20.80" shape="1110.40,-198.40 1089.60,-198.40"/>
    </edge>
    <edge id=":gneJ13_7" function="internal">
        <lane id=":gneJ13_7_0" index="0" speed="9.26" length="6.96" shape="1110.40,-198.40 1105.15,-199.15 1103.73,-200.00"/>
    </edge>
    <edge id=":gneJ13_17" function="internal">
        <lane id=":gneJ13_17_0" index="0" speed="9.26" length="12.40" shape="1103.73,-200.00 1101.40,-201.40 1099.15,-205.15 1098.40,-210.40"/>
    </edge>
    <edge id=":gneJ13_8" function="internal">
        <lane id=":gneJ13_8_0" index="0" speed="6.51" length="9.03" shape="1104.80,-210.40 1105.15,-207.95 1106.20,-206.20 1107.95,-205.15 1110.40,-204.80"/>
    </edge>
    <edge id=":gneJ13_9" function="internal">
        <lane id=":gneJ13_9_0" index="0" speed="13.89" length="20.80" shape="1104.80,-210.40 1104.80,-189.60"/>
        <lane id=":gneJ13_9_1" index="1" speed="13.89" length="20.80" shape="1101.60,-210.40 1101.60,-189.60"/>
    </edge>
    <edge id=":gneJ13_11" function="internal">
        <lane id=":gneJ13_11_0" index="0" speed="9.26" length="6.96" shape="1101.60,-210.40 1100.85,-205.15 1100.00,-203.73"/>
    </edge>
    <edge id=":gneJ13_18" function="internal">
        <lane id=":gneJ13_18_0" index="0" speed="9.26" length="12.40" shape="1100.00,-203.73 1098.60,-201.40 1094.85,-199.15 1089.60,-198.40"/>
    </edge>
    <edge id=":gneJ13_12" function="internal">
        <lane id=":gneJ13_12_0" index="0" speed="6.51" length="9.03" shape="1089.60,-204.80 1092.05,-205.15 1093.80,-206.20 1094.85,-207.95 1095.20,-210.40"/>
    </edge>
    <edge id=":gneJ13_13" function="internal">
        <lane id=":gneJ13_13_0" index="0" speed="13.89" length="20.80" shape="1089.60,-204.80 1110.40,-204.80"/>
        <lane id=":gneJ13_13_1" index="1" speed="13.89" length="20.80" shape="1089.60,-201.60 1110.40,-201.60"/>
    </edge>
    <edge id=":gneJ13_15" function="internal">
        <lane id=":gneJ13_15_0" index="0" speed="9.26" length="6.96" shape="1089.60,-201.60 1094.85,-200.85 1096.27,-200.00"/>
    </edge>
    <edge id=":gneJ13_19" function="internal">
        <lane id=":gneJ13_19_0" index="0" speed="9.26" length="12.40" shape="1096.27,-200.00 1098.60,-198.60 1100.85,-194.85 1101.60,-189.60"/>
    </edge>
    <edge id=":gneJ14_0" function="internal">
        <lane id=":gneJ14_0_0" index="0" speed="6.51" length="9.03" shape="1595.20,-189.60 1594.85,-192.05 1593.80,-193.80 1592.05,-194.85 1589.60,-195.20"/>
    </edge>
    <edge id=":gneJ14_1" function="internal">
        <lane id=":gneJ14_1_0" index="0" speed="13.89" length="20.80" shape="1595.20,-189.60 1595.20,-210.40"/>
        <lane id=":gneJ14_1_1" index="1" speed="13.89" length="20.80" shape="1598.40,-189.60 1598.40,-210.40"/>
    </edge>
    <edge id=":gneJ14_3" function="internal">
        <lane id=":gneJ14_3_0" index="0" speed="9.26" length="6.96" shape="1598.40,-189.60 1599.15,-194.85 1600.00,-196.27"/>
    </edge>
    <edge id=":gneJ14_16" function="internal">
        <lane id=":gneJ14_16_0" index="0" speed="9.26" length="12.40" shape="1600.00,-196.27 1601.40,-198.60 1605.15,-200.85 1610.40,-201.60"/>
    </edge>
    <edge id=":gneJ14_4" function="internal">
        <lane id=":gneJ14_4_0" index="0" speed="6.51" length="9.03" shape="1610.40,-195.20 1607.95,-194.85 1606.20,-193.80 1605.15,-192.05 1604.80,-189.60"/>
    </edge>
    <edge id=":gneJ14_5" function="internal">
        <lane id=":gneJ14_5_0" index="0" speed="13.89" length="20.80" shape="1610.40,-195.20 1589.60,-195.20"/>
        <lane id=":gneJ14_5_1" index="1" speed="13.89" length="20.80" shape="1610.40,-198.40 1589.60,-198.40"/>
    </edge>
    <edge id=":gneJ14_7" function="internal">
        <lane id=":gneJ14_7_0" index="0" speed="9.26" length="6.96" shape="1610.40,-198.40 1605.15,-199.15 1603.73,-200.00"/>
    </edge>
    <edge id=":gneJ14_17" function="internal">
        <lane id=":gneJ14_17_0" index="0" speed="9.26" length="12.40" shape="1603.73,-200.00 1601.40,-201.40 1599.15,-205.15 1598.40,-210.40"/>
    </edge>
    <edge id=":gneJ14_8" function="internal">
        <lane id=":gneJ14_8_0" index="0" speed="6.51" length="9.03" shape="1604.80,-210.40 1605.15,-207.95 1606.20,-206.20 1607.95,-205.15 1610.40,-204.80"/>
    </edge>
    <edge id=":gneJ14_9" function="internal">
        <lane id=":gneJ14_9_0" index="0" speed="13.89" length="20.80" shape="1604.80,-210.40 1604.80,-189.60"/>
        <lane id=":gneJ14_9_1" index="1" speed="13.89" length="20.80" shape="1601.60,-210.40 1601.60,-189.60"/>
    </edge>
    <edge id=":gneJ14_11" function="internal">
        <lane id=":gneJ14_11_0" index="0" speed="9.26" length="6.96" shape="1601.60,-210.40 1600.85,-205.15 1600.00,-203.73"/>
    </edge>
    <edge id=":gneJ14_18" function="internal">
        <lane id=":gneJ14_18_0" index="0" speed="9.26" length="12.40" shape="1600.00,-203.73 1598.60,-201.40 1594.85,-199.15 1589.60,-198.40"/>
    </edge>
    <edge id=":gneJ14_12" function="internal">
        <lane id=":gneJ14_12_0" index="0" speed="6.51" length="9.03" shape="1589.60,-204.80 1592.05,-205.15 1593.80,-206.20 1594.85,-207.95 1595.20,-210.40"/>
    </edge>
    <edge id=":gneJ14_13" function="internal">
        <lane id=":gneJ14_13_0" index="0" speed="13.89" length="20.80" shape="1589.60,-204.80 1610.40,-204.80"/>
        <lane id=":gneJ14_13_1" index="1" speed="13.89" length="20.80" shape="1589.60,-201.60 1610.40,-201.60"/>
    </edge>
    <edge id=":gneJ14_15" function="internal">
        <lane id=":gneJ14_15_0" index="0" speed="9.26" length="6.96" shape="1589.60,-201.60 1594.85,-200.85 1596.27,-200.00"/>
    </edge>
    <edge id=":gneJ14_19" function="internal">
        <lane id=":gneJ14_19_0" index="0" speed="9.26" length="12.40" shape="1596.27,-200.00 1598.60,-198.60 1600.85,-194.85 1601.60,-189.60"/>
    </edge>
    <edge id=":gneJ17_0" function="internal">
        <lane id=":gneJ17_0_0" index="0" speed="6.51" length="9.03" shape="595.20,-689.60 594.85,-692.05 593.80,-693.80 592.05,-694.85 589.60,-695.20"/>
    </edge>
    <edge id=":gneJ17_1" function="internal">
        <lane id=":gneJ17_1_0" index="0" speed="13.89" length="20.80" shape="595.20,-689.60 595.20,-710.40"/>
        <lane id=":gneJ17_1_1" index="1" speed="13.89" length="20.80" shape="598.40,-689.60 598.40,-710.40"/>
    </edge>
    <edge id=":gneJ17_3" function="internal">
        <lane id=":gneJ17_3_0" index="0" speed="9.26" length="6.96" shape="598.40,-689.60 599.15,-694.85 600.00,-696.27"/>
    </edge>
    <edge id=":gneJ17_16" function="internal">
        <lane id=":gneJ17_16_0" index="0" speed="9.26" length="12.40" shape="600.00,-696.27 601.40,-698.60 605.15,-700.85 610.40,-701.60"/>
    </edge>
    <edge id=":gneJ17_4" function="internal">
        <lane id=":gneJ17_4_0" index="0" speed="6.51" length="9.03" shape="610.40,-695.20 607.95,-694.85 606.20,-693.80 605.15,-692.05 604.80,-689.60"/>
    </edge>
    <edge id=":gneJ17_5" function="internal">
        <lane id=":gneJ17_5_0" index="0" speed="13.89" length="20.80" shape="610.40,-695.20 589.60,-695.20"/>
        <lane id=":gneJ17_5_1" index="1" speed="13.89" length="20.80" shape="610.40,-698.40 589.60,-698.40"/>
    </edge>
    <edge id=":gneJ17_7" function="internal">
        <lane id=":gneJ17_7_0" index="0" speed="9.26" length="6.96" shape="610.40,-698.40 605.15,-699.15 603.73,-700.00"/>
    </edge>
    <edge id=":gneJ17_17" function="internal">
        <lane id=":gneJ17_17_0" index="0" speed="9.26" length="12.40" shape="603.73,-700.00 601.40,-701.40 599.15,-705.15 598.40,-710.40"/>
    </edge>
    <edge id=":gneJ17_8" function="internal">
        <lane id=":gneJ17_8_0" index="0" speed="6.51" length="9.03" shape="604.80,-710.40 605.15,-707.95 606.20,-706.20 607.95,-705.15 610.40,-704.80"/>
    </edge>
    <edge id=":gneJ17_9" function="internal">
        <lane id=":gneJ17_9_0" index="0" speed="13.89" length="20.80" shape="604.80,-710.40 604.80,-689.60"/>
        <lane id=":gneJ17_9_1" index="1" speed="13.89" length="20.80" shape="601.60,-710.40 601.60,-689.60"/>
    </edge>
    <edge id=":gneJ17_11" function="internal">
        <lane id=":gneJ17_11_0" index="0" speed="9.26" length="6.96" shape="601.60,-710.40 600.85,-705.15 600.00,-703.73"/>
    </edge>
    <edge id=":gneJ17_18" function="internal">
        <lane id=":gneJ17_18_0" index="0" speed="9.26" length="12.40" shape="600.00,-703.73 598.60,-701.40 594.85,-699.15 589.60,-698.40"/>
    </edge>
    <edge id=":gneJ17_12" function="internal">
        <lane id=":gneJ17_12_0" index="0" speed="6.51" length="9.03" shape="589.60,-704.80 592.05,-705.15 593.80,-706.20 594.85,-707.95 595.20,-710.40"/>
    </edge>
    <edge id=":gneJ17_13" function="internal">
        <lane id=":gneJ17_13_0" index="0" speed="13.89" length="20.80" shape="589.60,-704.80 610.40,-704.80"/>
        <lane id=":gneJ17_13_1" index="1" speed="13.89" length="20.80" shape="589.60,-701.60 610.40,-701.60"/>
    </edge>
    <edge id=":gneJ17_15" function="internal">
        <lane id=":gneJ17_15_0" index="0" speed="9.26" length="6.96" shape="589.60,-701.60 594.85,-700.85 596.27,-700.00"/>
    </edge>
    <edge id=":gneJ17_19" function="internal">
        <lane id=":gneJ17_19_0" index="0" speed="9.26" length="12.40" shape="596.27,-700.00 598.60,-698.60 600.85,-694.85 601.60,-689.60"/>
    </edge>
    <edge id=":gneJ18_0" function="internal">
        <lane id=":gneJ18_0_0" index="0" speed="6.51" length="9.03" shape="1095.20,-689.60 1094.85,-692.05 1093.80,-693.80 1092.05,-694.85 1089.60,-695.20"/>
    </edge>
    <edge id=":gneJ18_1" function="internal">
        <lane id=":gneJ18_1_0" index="0" speed="13.89" length="20.80" shape="1095.20,-689.60 1095.20,-710.40"/>
        <lane id=":gneJ18_1_1" index="1" speed="13.89" length="20.80" shape="1098.40,-689.60 1098.40,-710.40"/>
    </edge>
    <edge id=":gneJ18_3" function="internal">
        <lane id=":gneJ18_3_0" index="0" speed="9.26" length="6.96" shape="1098.40,-689.60 1099.15,-694.85 1100.00,-696.27"/>
    </edge>
    <edge id=":gneJ18_16" function="internal">
        <lane id=":gneJ18_16_0" index="0" speed="9.26" length="12.40" shape="1100.00,-696.27 1101.40,-698.60 1105.15,-700.85 1110.40,-701.60"/>
    </edge>
    <edge id=":gneJ18_4" function="internal">
        <lane id=":gneJ18_4_0" index="0" speed="6.51" length="9.03" shape="1110.40,-695.20 1107.95,-694.85 1106.20,-693.80 1105.15,-692.05 1104.80,-689.60"/>
    </edge>
    <edge id=":gneJ18_5" function="internal">
        <lane id=":gneJ18_5_0" index="0" speed="13.89" length="20.80" shape="1110.40,-695.20 1089.60,-695.20"/>
        <lane id=":gneJ18_5_1" index="1" speed="13.89" length="20.80" shape="1110.40,-698.40 1089.60,-698.40"/>
    </edge>
    <edge id=":gneJ18_7" function="internal">
        <lane id=":gneJ18_7_0" index="0" speed="9.26" length="6.96" shape="1110.40,-698.40 1105.15,-699.15 1103.73,-700.00"/>
    </edge>
    <edge id=":gneJ18_17" function="internal">
        <lane id=":gneJ18_17_0" index="0" speed="9.26" length="12.40" shape="1103.73,-700.00 1101.40,-701.40 1099.15,-705.15 1098.40,-710.40"/>
    </edge>
    <edge id=":gneJ18_8" function="internal">
        <lane id=":gneJ18_8_0" index="0" speed="6.51" length="9.03" shape="1104.80,-710.40 1105.15,-707.95 1106.20,-706.20 1107.95,-705.15 1110.40,-704.80"/>
    </edge>
    <edge id=":gneJ18_9" function="internal">
        <lane id=":gneJ18_9_0" index="0" speed="13.89" length="20.80" shape="1104.80,-710.40 1104.80,-689.60"/>
        <lane id=":gneJ18_9_1" index="1" speed="13.89" length="20.80" shape="1101.60,-710.40 1101.60,-689.60"/>
    </edge>
    <edge id=":gneJ18_11" function="internal">
        <lane id=":gneJ18_11_0" index="0" speed="9.26" length="6.96" shape="1101.60,-710.40 1100.85,-705.15 1100.00,-703.73"/>
    </edge>
    <edge id=":gneJ18_18" function="internal">
        <lane id=":gneJ18_18_0" index="0" speed="9.26" length="12.40" shape="1100.00,-703.73 1098.60,-701.40 1094.85,-699.15 1089.60,-698.40"/>
    </edge>
    <edge id=":gneJ18_12" function="internal">
        <lane id=":gneJ18_12_0" index="0" speed="6.51" length="9.03" shape="1089.60,-704.80 1092.05,-705.15 1093.80,-706.20 1094.85,-707.95 1095.20,-710.40"/>
    </edge>
    <edge id=":gneJ18_13" function="internal">
        <lane id=":gneJ18_13_0" index="0" speed="13.89" length="20.80" shape="1089.60,-704.80 1110.40,-704.80"/>
        <lane id=":gneJ18_13_1" index="1" speed="13.89" length="20.80" shape="1089.60,-701.60 1110.40,-701.60"/>
    </edge>
    <edge id=":gneJ18_15" function="internal">
        <lane id=":gneJ18_15_0" index="0" speed="9.26" length="6.96" shape="1089.60,-701.60 1094.85,-700.85 1096.27,-700.00"/>
    </edge>
    <edge id=":gneJ18_19" function="internal">
        <lane id=":gneJ18_19_0" index="0" speed="9.26" length="12.40" shape="1096.27,-700.00 1098.60,-698.60 1100.85,-694.85 1101.60,-689.60"/>
    </edge>
    <edge id=":gneJ19_0" function="internal">
        <lane id=":gneJ19_0_0" index="0" speed="6.51" length="9.03" shape="1595.20,-689.60 1594.85,-692.05 1593.80,-693.80 1592.05,-694.85 1589.60,-695.20"/>
    </edge>
    <edge id=":gneJ19_1" function="internal">
        <lane id=":gneJ19_1_0" index="0" speed="13.89" length="20.80" shape="1595.20,-689.60 1595.20,-710.40"/>
        <lane id=":gneJ19_1_1" index="1" speed="13.89" length="20.80" shape="1598.40,-689.60 1598.40,-710.40"/>
    </edge>
    <edge id=":gneJ19_3" function="internal">
        <lane id=":gneJ19_3_0" index="0" speed="9.26" length="6.96" shape="1598.40,-689.60 1599.15,-694.85 1600.00,-696.27"/>
    </edge>
    <edge id=":gneJ19_16" function="internal">
        <lane id=":gneJ19_16_0" index="0" speed="9.26" length="12.40" shape="1600.00,-696.27 1601.40,-698.60 1605.15,-700.85 1610.40,-701.60"/>
    </edge>
    <edge id=":gneJ19_4" function="internal">
        <lane id=":gneJ19_4_0" index="0" speed="6.51" length="9.03" shape="1610.40,-695.20 1607.95,-694.85 1606.20,-693.80 1605.15,-692.05 1604.80,-689.60"/>
    </edge>
    <edge id=":gneJ19_5" function="internal">
        <lane id=":gneJ19_5_0" index="0" speed="13.89" length="20.80" shape="1610.40,-695.20 1589.60,-695.20"/>
        <lane id=":gneJ19_5_1" index="1" speed="13.89" length="20.80" shape="1610.40,-698.40 1589.60,-698.40"/>
    </edge>
    <edge id=":gneJ19_7" function="internal">
        <lane id=":gneJ19_7_0" index="0" speed="9.26" length="6.96" shape="1610.40,-698.40 1605.15,-699.15 1603.73,-700.00"/>
    </edge>
    <edge id=":gneJ19_17" function="internal">
        <lane id=":gneJ19_17_0" index="0" speed="9.26" length="12.40" shape="1603.73,-700.00 1601.40,-701.40 1599.15,-705.15 1598.40,-710.40"/>
    </edge>
    <edge id=":gneJ19_8" function="internal">
        <lane id=":gneJ19_8_0" index="0" speed="6.51" length="9.03" shape="1604.80,-710.40 1605.15,-707.95 1606.20,-706.20 1607.95,-705.15 1610.40,-704.80"/>
    </edge>
    <edge id=":gneJ19_9" function="internal">
        <lane id=":gneJ19_9_0" index="0" speed="13.89" length="20.80" shape="1604.80,-710.40 1604.80,-689.60"/>
        <lane id=":gneJ19_9_1" index="1" speed="13.89" length="20.80" shape="1601.60,-710.40 1601.60,-689.60"/>
    </edge>
    <edge id=":gneJ19_11" function="internal">
        <lane id=":gneJ19_11_0" index="0" speed="9.26" length="6.96" shape="1601.60,-710.40 1600.85,-705.15 1600.00,-703.73"/>
    </edge>
    <edge id=":gneJ19_18" function="internal">
        <lane id=":gneJ19_18_0" index="0" speed="9.26" length="12.40" shape="1600.00,-703.73 1598.60,-701.40 1594.85,-699.15 1589.60,-698.40"/>
    </edge>
    <edge id=":gneJ19_12" function="internal">
        <lane id=":gneJ19_12_0" index="0" speed="6.51" length="9.03" shape="1589.60,-704.80 1592.05,-705.15 1593.80,-706.20 1594.85,-707.95 1595.20,-710.40"/>
    </edge>
    <edge id=":gneJ19_13" function="internal">
        <lane id=":gneJ19_13_0" index="0" speed="13.89" length="20.80" shape="1589.60,-704.80 1610.40,-704.80"/>
        <lane id=":gneJ19_13_1" index="1" speed="13.89" length="20.80" shape="1589.60,-701.60 1610.40,-701.60"/>
    </edge>
    <edge id=":gneJ19_15" function="internal">
        <lane id=":gneJ19_15_0" index="0" speed="9.26" length="6.96" shape="1589.60,-701.60 1594.85,-700.85 1596.27,-700.00"/>
    </edge>
    <edge id=":gneJ19_19" function="internal">
        <lane id=":gneJ19_19_0" index="0" speed="9.26" length="12.40" shape="1596.27,-700.00 1598.60,-698.60 1600.85,-694.85 1601.60,-689.60"/>
    </edge>
    <edge id=":gneJ3_0" function="internal">
        <lane id=":gneJ3_0_0" index="0" speed="6.51" length="9.03" shape="595.20,310.40 594.85,307.95 593.80,306.20 592.05,305.15 589.60,304.80"/>
    </edge>
    <edge id=":gneJ3_1" function="internal">
        <lane id=":gneJ3_1_0" index="0" speed="13.89" length="20.80" shape="595.20,310.40 595.20,289.60"/>
        <lane id=":gneJ3_1_1" index="1" speed="13.89" length="20.80" shape="598.40,310.40 598.40,289.60"/>
    </edge>
    <edge id=":gneJ3_3" function="internal">
        <lane id=":gneJ3_3_0" index="0" speed="9.26" length="6.96" shape="598.40,310.40 599.15,305.15 600.00,303.73"/>
    </edge>
    <edge id=":gneJ3_16" function="internal">
        <lane id=":gneJ3_16_0" index="0" speed="9.26" length="12.40" shape="600.00,303.73 601.40,301.40 605.15,299.15 610.40,298.40"/>
    </edge>
    <edge id=":gneJ3_4" function="internal">
        <lane id=":gneJ3_4_0" index="0" speed="6.51" length="9.03" shape="610.40,304.80 607.95,305.15 606.20,306.20 605.15,307.95 604.80,310.40"/>
    </edge>
    <edge id=":gneJ3_5" function="internal">
        <lane id=":gneJ3_5_0" index="0" speed="13.89" length="20.80" shape="610.40,304.80 589.60,304.80"/>
        <lane id=":gneJ3_5_1" index="1" speed="13.89" length="20.80" shape="610.40,301.60 589.60,301.60"/>
    </edge>
    <edge id=":gneJ3_7" function="internal">
        <lane id=":gneJ3_7_0" index="0" speed="9.26" length="6.96" shape="610.40,301.60 605.15,300.85 603.73,300.00"/>
    </edge>
    <edge id=":gneJ3_17" function="internal">
        <lane id=":gneJ3_17_0" index="0" speed="9.26" length="12.40" shape="603.73,300.00 601.40,298.60 599.15,294.85 598.40,289.60"/>
    </edge>
    <edge id=":gneJ3_8" function="internal">
        <lane id=":gneJ3_8_0" index="0" speed="6.51" length="9.03" shape="604.80,289.60 605.15,292.05 606.20,293.80 607.95,294.85 610.40,295.20"/>
    </edge>
    <edge id=":gneJ3_9" function="internal">
        <lane id=":gneJ3_9_0" index="0" speed="13.89" length="20.80" shape="604.80,289.60 604.80,310.40"/>
        <lane id=":gneJ3_9_1" index="1" speed="13.89" length="20.80" shape="601.60,289.60 601.60,310.40"/>
    </edge>
    <edge id=":gneJ3_11" function="internal">
        <lane id=":gneJ3_11_0" index="0" speed="9.26" length="6.96" shape="601.60,289.60 600.85,294.85 600.00,296.27"/>
    </edge>
    <edge id=":gneJ3_18" function="internal">
        <lane id=":gneJ3_18_0" index="0" speed="9.26" length="12.40" shape="600.00,296.27 598.60,298.60 594.85,300.85 589.60,301.60"/>
    </edge>
    <edge id=":gneJ3_12" function="internal">
        <lane id=":gneJ3_12_0" index="0" speed="6.51" length="9.03" shape="589.60,295.20 592.05,294.85 593.80,293.80 594.85,292.05 595.20,289.60"/>
    </edge>
    <edge id=":gneJ3_13" function="internal">
        <lane id=":gneJ3_13_0" index="0" speed="13.89" length="20.80" shape="589.60,295.20 610.40,295.20"/>
        <lane id=":gneJ3_13_1" index="1" speed="13.89" length="20.80" shape="589.60,298.40 610.40,298.40"/>
    </edge>
    <edge id=":gneJ3_15" function="internal">
        <lane id=":gneJ3_15_0" index="0" speed="9.26" length="6.96" shape="589.60,298.40 594.85,299.15 596.27,300.00"/>
    </edge>
    <edge id=":gneJ3_19" function="internal">
        <lane id=":gneJ3_19_0" index="0" speed="9.26" length="12.40" shape="596.27,300.00 598.60,301.40 600.85,305.15 601.60,310.40"/>
    </edge>
    <edge id=":gneJ7_0" function="internal">
        <lane id=":gneJ7_0_0" index="0" speed="6.51" length="9.03" shape="1095.20,310.40 1094.85,307.95 1093.80,306.20 1092.05,305.15 1089.60,304.80"/>
    </edge>
    <edge id=":gneJ7_1" function="internal">
        <lane id=":gneJ7_1_0" index="0" speed="13.89" length="20.80" shape="1095.20,310.40 1095.20,289.60"/>
        <lane id=":gneJ7_1_1" index="1" speed="13.89" length="20.80" shape="1098.40,310.40 1098.40,289.60"/>
    </edge>
    <edge id=":gneJ7_3" function="internal">
        <lane id=":gneJ7_3_0" index="0" speed="9.26" length="6.96" shape="1098.40,310.40 1099.15,305.15 1100.00,303.73"/>
    </edge>
    <edge id=":gneJ7_16" function="internal">
        <lane id=":gneJ7_16_0" index="0" speed="9.26" length="12.40" shape="1100.00,303.73 1101.40,301.40 1105.15,299.15 1110.40,298.40"/>
    </edge>
    <edge id=":gneJ7_4" function="internal">
        <lane id=":gneJ7_4_0" index="0" speed="6.51" length="9.03" shape="1110.40,304.80 1107.95,305.15 1106.20,306.20 1105.15,307.95 1104.80,310.40"/>
    </edge>
    <edge id=":gneJ7_5" function="internal">
        <lane id=":gneJ7_5_0" index="0" speed="13.89" length="20.80" shape="1110.40,304.80 1089.60,304.80"/>
        <lane id=":gneJ7_5_1" index="1" speed="13.89" length="20.80" shape="1110.40,301.60 1089.60,301.60"/>
    </edge>
    <edge id=":gneJ7_7" function="internal">
        <lane id=":gneJ7_7_0" index="0" speed="9.26" length="6.96" shape="1110.40,301.60 1105.15,300.85 1103.73,300.00"/>
    </edge>
    <edge id=":gneJ7_17" function="internal">
        <lane id=":gneJ7_17_0" index="0" speed="9.26" length="12.40" shape="1103.73,300.00 1101.40,298.60 1099.15,294.85 1098.40,289.60"/>
    </edge>
    <edge id=":gneJ7_8" function="internal">
        <lane id=":gneJ7_8_0" index="0" speed="6.51" length="9.03" shape="1104.80,289.60 1105.15,292.05 1106.20,293.80 1107.95,294.85 1110.40,295.20"/>
    </edge>
    <edge id=":gneJ7_9" function="internal">
        <lane id=":gneJ7_9_0" index="0" speed="13.89" length="20.80" shape="1104.80,289.60 1104.80,310.40"/>
        <lane id=":gneJ7_9_1" index="1" speed="13.89" length="20.80" shape="1101.60,289.60 1101.60,310.40"/>
    </edge>
    <edge id=":gneJ7_11" function="internal">
        <lane id=":gneJ7_11_0" index="0" speed="9.26" length="6.96" shape="1101.60,289.60 1100.85,294.85 1100.00,296.27"/>
    </edge>
    <edge id=":gneJ7_18" function="internal">
        <lane id=":gneJ7_18_0" index="0" speed="9.26" length="12.40" shape="1100.00,296.27 1098.60,298.60 1094.85,300.85 1089.60,301.60"/>
    </edge>
    <edge id=":gneJ7_12" function="internal">
        <lane id=":gneJ7_12_0" index="0" speed="6.51" length="9.03" shape="1089.60,295.20 1092.05,294.85 1093.80,293.80 1094.85,292.05 1095.20,289.60"/>
    </edge>
    <edge id=":gneJ7_13" function="internal">
        <lane id=":gneJ7_13_0" index="0" speed="13.89" length="20.80" shape="1089.60,295.20 1110.40,295.20"/>
        <lane id=":gneJ7_13_1" index="1" speed="13.89" length="20.80" shape="1089.60,298.40 1110.40,298.40"/>
    </edge>
    <edge id=":gneJ7_15" function="internal">
        <lane id=":gneJ7_15_0" index="0" speed="9.26" length="6.96" shape="1089.60,298.40 1094.85,299.15 1096.27,300.00"/>
    </edge>
    <edge id=":gneJ7_19" function="internal">
        <lane id=":gneJ7_19_0" index="0" speed="9.26" length="12.40" shape="1096.27,300.00 1098.60,301.40 1100.85,305.15 1101.60,310.40"/>
    </edge>
    <edge id=":gneJ9_0" function="internal">
        <lane id=":gneJ9_0_0" index="0" speed="6.51" length="9.03" shape="1595.20,310.40 1594.85,307.95 1593.80,306.20 1592.05,305.15 1589.60,304.80"/>
    </edge>
    <edge id=":gneJ9_1" function="internal">
        <lane id=":gneJ9_1_0" index="0" speed="13.89" length="20.80" shape="1595.20,310.40 1595.20,289.60"/>