<?xml version="1.0" encoding="UTF-8"?>

<!-- generated on Thu Dec 10 22:34:08 2020 by Eclipse SUMO sumo Version 1.7.0
-->

<configuration xmlns:xsi="http://www.w3.org/2001/XMLSchema-instance" xsi:noNamespaceSchemaLocation="http://sumo.dlr.de/xsd/sumoConfiguration.xsd">

    <input>
        <net-file value="3x3.net.xml"/>
        <route-files value="routes/3x3_0.rou.xml"/>
        <additional-files value="3x3.add.xml"/>
    </input>

</configuration>
